<?xml version="1.0" encoding="UTF-8"?>
<routes>
    <vType id="car" accel="1.2" decel="3.0" sigma="0.5" length="4.2" maxSpeed="13.9"/>
    <flow id="flow_1" from="40668087#1" to="542428845#0" type="car" begin="0" end="3600" vehsPerHour="26"/>
    <flow id="flow_2" from="40668087#1" to="337277957#0" type="car" begin="0" end="3600" vehsPerHour="26"/>
    <flow id="flow_3" from="40668087#1" to="1053072563" type="car" begin="0" end="3600" vehsPerHour="26"/>
    <flow id="flow_4" from="40668087#1" to="337277973#1" type="car" begin="0" end="3600" vehsPerHour="26"/>
    <flow id="flow_5" from="40668087#1" to="337277984#0" type="car" begin="0" end="3600" vehsPerHour="26"/>
    <flow id="flow_6" from="40668087#1" to="337277970#1" type="car" begin="0" end="3600" vehsPerHour="26"/>
    <flow id="flow_7" from="40668087#1" to="337277951#1" type="car" begin="0" end="3600" vehsPerHour="26"/>
    <flow id="flow_8" from="49217102" to="337277951#3" type="car" begin="0" end="3600" vehsPerHour="26"/>
    <flow id="flow_9" from="49217102" to="1053072563" type="car" begin="0" end="3600" vehsPerHour="26"/>
    <flow id="flow_10" from="49217102" to="337277973#1" type="car" begin="0" end="3600" vehsPerHour="26"/>
    <flow id="flow_11" from="49217102" to="337277984#0" type="car" begin="0" end="3600" vehsPerHour="26"/>
    <flow id="flow_12" from="49217102" to="542428845#0" type="car" begin="0" end="3600" vehsPerHour="26"/>
    <flow id="flow_13" from="42143912#5" to="337277957#0" type="car" begin="0" end="3600" vehsPerHour="26"/>
    <flow id="flow_14" from="42143912#5" to="542428845#0" type="car" begin="0" end="3600" vehsPerHour="26"/>
    <flow id="flow_15" from="42143912#5" to="1053072563" type="car" begin="0" end="3600" vehsPerHour="26"/>
    <flow id="flow_16" from="42143912#5" to="337277973#1" type="car" begin="0" end="3600" vehsPerHour="26"/>
    <flow id="flow_17" from="567060342#0" to="337277984#0" type="car" begin="0" end="3600" vehsPerHour="26"/>
    <flow id="flow_18" from="567060342#0" to="542428845#0" type="car" begin="0" end="3600" vehsPerHour="26"/>
    <flow id="flow_19" from="567060342#0" to="337277957#0" type="car" begin="0" end="3600" vehsPerHour="26"/>
    <flow id="flow_20" from="40668087#1" to="542428845#0" type="car" begin="3600" end="7200" vehsPerHour="36"/>
    <flow id="flow_21" from="40668087#1" to="337277957#0" type="car" begin="3600" end="7200" vehsPerHour="36"/>
    <flow id="flow_22" from="40668087#1" to="1053072563" type="car" begin="3600" end="7200" vehsPerHour="36"/>
    <flow id="flow_23" from="40668087#1" to="337277973#1" type="car" begin="3600" end="7200" vehsPerHour="36"/>
    <flow id="flow_24" from="40668087#1" to="337277984#0" type="car" begin="3600" end="7200" vehsPerHour="36"/>
    <flow id="flow_25" from="40668087#1" to="337277970#1" type="car" begin="3600" end="7200" vehsPerHour="36"/>
    <flow id="flow_26" from="40668087#1" to="337277951#1" type="car" begin="3600" end="7200" vehsPerHour="36"/>
    <flow id="flow_27" from="49217102" to="337277951#3" type="car" begin="3600" end="7200" vehsPerHour="36"/>
    <flow id="flow_28" from="49217102" to="1053072563" type="car" begin="3600" end="7200" vehsPerHour="36"/>
    <flow id="flow_29" from="49217102" to="337277973#1" type="car" begin="3600" end="7200" vehsPerHour="36"/>
    <flow id="flow_30" from="49217102" to="337277984#0" type="car" begin="3600" end="7200" vehsPerHour="36"/>
    <flow id="flow_31" from="49217102" to="542428845#0" type="car" begin="3600" end="7200" vehsPerHour="36"/>
    <flow id="flow_32" from="42143912#5" to="337277957#0" type="car" begin="3600" end="7200" vehsPerHour="36"/>
    <flow id="flow_33" from="42143912#5" to="542428845#0" type="car" begin="3600" end="7200" vehsPerHour="36"/>
    <flow id="flow_34" from="42143912#5" to="1053072563" type="car" begin="3600" end="7200" vehsPerHour="36"/>
    <flow id="flow_35" from="42143912#5" to="337277973#1" type="car" begin="3600" end="7200" vehsPerHour="36"/>
    <flow id="flow_36" from="567060342#0" to="337277984#0" type="car" begin="3600" end="7200" vehsPerHour="36"/>
    <flow id="flow_37" from="567060342#0" to="542428845#0" type="car" begin="3600" end="7200" vehsPerHour="36"/>
    <flow id="flow_38" from="567060342#0" to="337277957#0" type="car" begin="3600" end="7200" vehsPerHour="36"/>
    <flow id="flow_39" from="40668087#1" to="542428845#0" type="car" begin="7200" end="10800" vehsPerHour="47"/>
    <flow id="flow_40" from="40668087#1" to="337277957#0" type="car" begin="7200" end="10800" vehsPerHour="47"/>
    <flow id="flow_41" from="40668087#1" to="1053072563" type="car" begin="7200" end="10800" vehsPerHour="47"/>
    <flow id="flow_42" from="40668087#1" to="337277973#1" type="car" begin="7200" end="10800" vehsPerHour="47"/>
    <flow id="flow_43" from="40668087#1" to="337277984#0" type="car" begin="7200" end="10800" vehsPerHour="47"/>
    <flow id="flow_44" from="40668087#1" to="337277970#1" type="car" begin="7200" end="10800" vehsPerHour="47"/>
    <flow id="flow_45" from="40668087#1" to="337277951#1" type="car" begin="7200" end="10800" vehsPerHour="47"/>
    <flow id="flow_46" from="49217102" to="337277951#3" type="car" begin="7200" end="10800" vehsPerHour="47"/>
    <flow id="flow_47" from="49217102" to="1053072563" type="car" begin="7200" end="10800" vehsPerHour="47"/>
    <flow id="flow_48" from="49217102" to="337277973#1" type="car" begin="7200" end="10800" vehsPerHour="47"/>
    <flow id="flow_49" from="49217102" to="337277984#0" type="car" begin="7200" end="10800" vehsPerHour="47"/>
    <flow id="flow_50" from="49217102" to="542428845#0" type="car" begin="7200" end="10800" vehsPerHour="47"/>
    <flow id="flow_51" from="42143912#5" to="337277957#0" type="car" begin="7200" end="10800" vehsPerHour="47"/>
    <flow id="flow_52" from="42143912#5" to="542428845#0" type="car" begin="7200" end="10800" vehsPerHour="47"/>
    <flow id="flow_53" from="42143912#5" to="1053072563" type="car" begin="7200" end="10800" vehsPerHour="47"/>
    <flow id="flow_54" from="42143912#5" to="337277973#1" type="car" begin="7200" end="10800" vehsPerHour="47"/>
    <flow id="flow_55" from="567060342#0" to="337277984#0" type="car" begin="7200" end="10800" vehsPerHour="47"/>
    <flow id="flow_56" from="567060342#0" to="542428845#0" type="car" begin="7200" end="10800" vehsPerHour="47"/>
    <flow id="flow_57" from="567060342#0" to="337277957#0" type="car" begin="7200" end="10800" vehsPerHour="47"/>
    <flow id="flow_58" from="40668087#1" to="542428845#0" type="car" begin="10800" end="14400" vehsPerHour="36"/>
    <flow id="flow_59" from="40668087#1" to="337277957#0" type="car" begin="10800" end="14400" vehsPerHour="36"/>
    <flow id="flow_60" from="40668087#1" to="1053072563" type="car" begin="10800" end="14400" vehsPerHour="36"/>
    <flow id="flow_61" from="40668087#1" to="337277973#1" type="car" begin="10800" end="14400" vehsPerHour="36"/>
    <flow id="flow_62" from="40668087#1" to="337277984#0" type="car" begin="10800" end="14400" vehsPerHour="36"/>
    <flow id="flow_63" from="40668087#1" to="337277970#1" type="car" begin="10800" end="14400" vehsPerHour="36"/>
    <flow id="flow_64" from="40668087#1" to="337277951#1" type="car" begin="10800" end="14400" vehsPerHour="36"/>
    <flow id="flow_65" from="49217102" to="337277951#3" type="car" begin="10800" end="14400" vehsPerHour="36"/>
    <flow id="flow_66" from="49217102" to="1053072563" type="car" begin="10800" end="14400" vehsPerHour="36"/>
    <flow id="flow_67" from="49217102" to="337277973#1" type="car" begin="10800" end="14400" vehsPerHour="36"/>
    <flow id="flow_68" from="49217102" to="337277984#0" type="car" begin="10800" end="14400" vehsPerHour="36"/>
    <flow id="flow_69" from="49217102" to="542428845#0" type="car" begin="10800" end="14400" vehsPerHour="36"/>
    <flow id="flow_70" from="42143912#5" to="337277957#0" type="car" begin="10800" end="14400" vehsPerHour="36"/>
    <flow id="flow_71" from="42143912#5" to="542428845#0" type="car" begin="10800" end="14400" vehsPerHour="36"/>
    <flow id="flow_72" from="42143912#5" to="1053072563" type="car" begin="10800" end="14400" vehsPerHour="36"/>
    <flow id="flow_73" from="42143912#5" to="337277973#1" type="car" begin="10800" end="14400" vehsPerHour="36"/>
    <flow id="flow_74" from="567060342#0" to="337277984#0" type="car" begin="10800" end="14400" vehsPerHour="36"/>
    <flow id="flow_75" from="567060342#0" to="542428845#0" type="car" begin="10800" end="14400" vehsPerHour="36"/>
    <flow id="flow_76" from="567060342#0" to="337277957#0" type="car" begin="10800" end="14400" vehsPerHour="36"/>
    <flow id="flow_77" from="40668087#1" to="542428845#0" type="car" begin="14400" end="18000" vehsPerHour="26"/>
    <flow id="flow_78" from="40668087#1" to="337277957#0" type="car" begin="14400" end="18000" vehsPerHour="26"/>
    <flow id="flow_79" from="40668087#1" to="1053072563" type="car" begin="14400" end="18000" vehsPerHour="26"/>
    <flow id="flow_80" from="40668087#1" to="337277973#1" type="car" begin="14400" end="18000" vehsPerHour="26"/>
    <flow id="flow_81" from="40668087#1" to="337277984#0" type="car" begin="14400" end="18000" vehsPerHour="26"/>
    <flow id="flow_82" from="40668087#1" to="337277970#1" type="car" begin="14400" end="18000" vehsPerHour="26"/>
    <flow id="flow_83" from="40668087#1" to="337277951#1" type="car" begin="14400" end="18000" vehsPerHour="26"/>
    <flow id="flow_84" from="49217102" to="337277951#3" type="car" begin="14400" end="18000" vehsPerHour="26"/>
    <flow id="flow_85" from="49217102" to="1053072563" type="car" begin="14400" end="18000" vehsPerHour="26"/>
    <flow id="flow_86" from="49217102" to="337277973#1" type="car" begin="14400" end="18000" vehsPerHour="26"/>
    <flow id="flow_87" from="49217102" to="337277984#0" type="car" begin="14400" end="18000" vehsPerHour="26"/>
    <flow id="flow_88" from="49217102" to="542428845#0" type="car" begin="14400" end="18000" vehsPerHour="26"/>
    <flow id="flow_89" from="42143912#5" to="337277957#0" type="car" begin="14400" end="18000" vehsPerHour="26"/>
    <flow id="flow_90" from="42143912#5" to="542428845#0" type="car" begin="14400" end="18000" vehsPerHour="26"/>
    <flow id="flow_91" from="42143912#5" to="1053072563" type="car" begin="14400" end="18000" vehsPerHour="26"/>
    <flow id="flow_92" from="42143912#5" to="337277973#1" type="car" begin="14400" end="18000" vehsPerHour="26"/>
    <flow id="flow_93" from="567060342#0" to="337277984#0" type="car" begin="14400" end="18000" vehsPerHour="26"/>
    <flow id="flow_94" from="567060342#0" to="542428845#0" type="car" begin="14400" end="18000" vehsPerHour="26"/>
    <flow id="flow_95" from="567060342#0" to="337277957#0" type="car" begin="14400" end="18000" vehsPerHour="26"/>
    <flow id="flow_96" from="40668087#1" to="542428845#0" type="car" begin="18000" end="21600" vehsPerHour="36"/>
    <flow id="flow_97" from="40668087#1" to="337277957#0" type="car" begin="18000" end="21600" vehsPerHour="36"/>
    <flow id="flow_98" from="40668087#1" to="1053072563" type="car" begin="18000" end="21600" vehsPerHour="36"/>
    <flow id="flow_99" from="40668087#1" to="337277973#1" type="car" begin="18000" end="21600" vehsPerHour="36"/>
    <flow id="flow_100" from="40668087#1" to="337277984#0" type="car" begin="18000" end="21600" vehsPerHour="36"/>
    <flow id="flow_101" from="40668087#1" to="337277970#1" type="car" begin="18000" end="21600" vehsPerHour="36"/>
    <flow id="flow_102" from="40668087#1" to="337277951#1" type="car" begin="18000" end="21600" vehsPerHour="36"/>
    <flow id="flow_103" from="49217102" to="337277951#3" type="car" begin="18000" end="21600" vehsPerHour="36"/>
    <flow id="flow_104" from="49217102" to="1053072563" type="car" begin="18000" end="21600" vehsPerHour="36"/>
    <flow id="flow_105" from="49217102" to="337277973#1" type="car" begin="18000" end="21600" vehsPerHour="36"/>
    <flow id="flow_106" from="49217102" to="337277984#0" type="car" begin="18000" end="21600" vehsPerHour="36"/>
    <flow id="flow_107" from="49217102" to="542428845#0" type="car" begin="18000" end="21600" vehsPerHour="36"/>
    <flow id="flow_108" from="42143912#5" to="337277957#0" type="car" begin="18000" end="21600" vehsPerHour="36"/>
    <flow id="flow_109" from="42143912#5" to="542428845#0" type="car" begin="18000" end="21600" vehsPerHour="36"/>
    <flow id="flow_110" from="42143912#5" to="1053072563" type="car" begin="18000" end="21600" vehsPerHour="36"/>
    <flow id="flow_111" from="42143912#5" to="337277973#1" type="car" begin="18000" end="21600" vehsPerHour="36"/>
    <flow id="flow_112" from="567060342#0" to="337277984#0" type="car" begin="18000" end="21600" vehsPerHour="36"/>
    <flow id="flow_113" from="567060342#0" to="542428845#0" type="car" begin="18000" end="21600" vehsPerHour="36"/>
    <flow id="flow_114" from="567060342#0" to="337277957#0" type="car" begin="18000" end="21600" vehsPerHour="36"/>
    <flow id="flow_115" from="40668087#1" to="542428845#0" type="car" begin="21600" end="25200" vehsPerHour="47"/>
    <flow id="flow_116" from="40668087#1" to="337277957#0" type="car" begin="21600" end="25200" vehsPerHour="47"/>
    <flow id="flow_117" from="40668087#1" to="1053072563" type="car" begin="21600" end="25200" vehsPerHour="47"/>
    <flow id="flow_118" from="40668087#1" to="337277973#1" type="car" begin="21600" end="25200" vehsPerHour="47"/>
    <flow id="flow_119" from="40668087#1" to="337277984#0" type="car" begin="21600" end="25200" vehsPerHour="47"/>
    <flow id="flow_120" from="40668087#1" to="337277970#1" type="car" begin="21600" end="25200" vehsPerHour="47"/>
    <flow id="flow_121" from="40668087#1" to="337277951#1" type="car" begin="21600" end="25200" vehsPerHour="47"/>
    <flow id="flow_122" from="49217102" to="337277951#3" type="car" begin="21600" end="25200" vehsPerHour="47"/>
    <flow id="flow_123" from="49217102" to="1053072563" type="car" begin="21600" end="25200" vehsPerHour="47"/>
    <flow id="flow_124" from="49217102" to="337277973#1" type="car" begin="21600" end="25200" vehsPerHour="47"/>
    <flow id="flow_125" from="49217102" to="337277984#0" type="car" begin="21600" end="25200" vehsPerHour="47"/>
    <flow id="flow_126" from="49217102" to="542428845#0" type="car" begin="21600" end="25200" vehsPerHour="47"/>
    <flow id="flow_127" from="42143912#5" to="337277957#0" type="car" begin="21600" end="25200" vehsPerHour="47"/>
    <flow id="flow_128" from="42143912#5" to="542428845#0" type="car" begin="21600" end="25200" vehsPerHour="47"/>
    <flow id="flow_129" from="42143912#5" to="1053072563" type="car" begin="21600" end="25200" vehsPerHour="47"/>
    <flow id="flow_130" from="42143912#5" to="337277973#1" type="car" begin="21600" end="25200" vehsPerHour="47"/>
    <flow id="flow_131" from="567060342#0" to="337277984#0" type="car" begin="21600" end="25200" vehsPerHour="47"/>
    <flow id="flow_132" from="567060342#0" to="542428845#0" type="car" begin="21600" end="25200" vehsPerHour="47"/>
    <flow id="flow_133" from="567060342#0" to="337277957#0" type="car" begin="21600" end="25200" vehsPerHour="47"/>
    <flow id="flow_134" from="40668087#1" to="542428845#0" type="car" begin="25200" end="28800" vehsPerHour="36"/>
    <flow id="flow_135" from="40668087#1" to="337277957#0" type="car" begin="25200" end="28800" vehsPerHour="36"/>
    <flow id="flow_136" from="40668087#1" to="1053072563" type="car" begin="25200" end="28800" vehsPerHour="36"/>
    <flow id="flow_137" from="40668087#1" to="337277973#1" type="car" begin="25200" end="28800" vehsPerHour="36"/>
    <flow id="flow_138" from="40668087#1" to="337277984#0" type="car" begin="25200" end="28800" vehsPerHour="36"/>
    <flow id="flow_139" from="40668087#1" to="337277970#1" type="car" begin="25200" end="28800" vehsPerHour="36"/>
    <flow id="flow_140" from="40668087#1" to="337277951#1" type="car" begin="25200" end="28800" vehsPerHour="36"/>
    <flow id="flow_141" from="49217102" to="337277951#3" type="car" begin="25200" end="28800" vehsPerHour="36"/>
    <flow id="flow_142" from="49217102" to="1053072563" type="car" begin="25200" end="28800" vehsPerHour="36"/>
    <flow id="flow_143" from="49217102" to="337277973#1" type="car" begin="25200" end="28800" vehsPerHour="36"/>
    <flow id="flow_144" from="49217102" to="337277984#0" type="car" begin="25200" end="28800" vehsPerHour="36"/>
    <flow id="flow_145" from="49217102" to="542428845#0" type="car" begin="25200" end="28800" vehsPerHour="36"/>
    <flow id="flow_146" from="42143912#5" to="337277957#0" type="car" begin="25200" end="28800" vehsPerHour="36"/>
    <flow id="flow_147" from="42143912#5" to="542428845#0" type="car" begin="25200" end="28800" vehsPerHour="36"/>
    <flow id="flow_148" from="42143912#5" to="1053072563" type="car" begin="25200" end="28800" vehsPerHour="36"/>
    <flow id="flow_149" from="42143912#5" to="337277973#1" type="car" begin="25200" end="28800" vehsPerHour="36"/>
    <flow id="flow_150" from="567060342#0" to="337277984#0" type="car" begin="25200" end="28800" vehsPerHour="36"/>
    <flow id="flow_151" from="567060342#0" to="542428845#0" type="car" begin="25200" end="28800" vehsPerHour="36"/>
    <flow id="flow_152" from="567060342#0" to="337277957#0" type="car" begin="25200" end="28800" vehsPerHour="36"/>
    <flow id="flow_153" from="40668087#1" to="542428845#0" type="car" begin="28800" end="32400" vehsPerHour="26"/>
    <flow id="flow_154" from="40668087#1" to="337277957#0" type="car" begin="28800" end="32400" vehsPerHour="26"/>
    <flow id="flow_155" from="40668087#1" to="1053072563" type="car" begin="28800" end="32400" vehsPerHour="26"/>
    <flow id="flow_156" from="40668087#1" to="337277973#1" type="car" begin="28800" end="32400" vehsPerHour="26"/>
    <flow id="flow_157" from="40668087#1" to="337277984#0" type="car" begin="28800" end="32400" vehsPerHour="26"/>
    <flow id="flow_158" from="40668087#1" to="337277970#1" type="car" begin="28800" end="32400" vehsPerHour="26"/>
    <flow id="flow_159" from="40668087#1" to="337277951#1" type="car" begin="28800" end="32400" vehsPerHour="26"/>
    <flow id="flow_160" from="49217102" to="337277951#3" type="car" begin="28800" end="32400" vehsPerHour="26"/>
    <flow id="flow_161" from="49217102" to="1053072563" type="car" begin="28800" end="32400" vehsPerHour="26"/>
    <flow id="flow_162" from="49217102" to="337277973#1" type="car" begin="28800" end="32400" vehsPerHour="26"/>
    <flow id="flow_163" from="49217102" to="337277984#0" type="car" begin="28800" end="32400" vehsPerHour="26"/>
    <flow id="flow_164" from="49217102" to="542428845#0" type="car" begin="28800" end="32400" vehsPerHour="26"/>
    <flow id="flow_165" from="42143912#5" to="337277957#0" type="car" begin="28800" end="32400" vehsPerHour="26"/>
    <flow id="flow_166" from="42143912#5" to="542428845#0" type="car" begin="28800" end="32400" vehsPerHour="26"/>
    <flow id="flow_167" from="42143912#5" to="1053072563" type="car" begin="28800" end="32400" vehsPerHour="26"/>
    <flow id="flow_168" from="42143912#5" to="337277973#1" type="car" begin="28800" end="32400" vehsPerHour="26"/>
    <flow id="flow_169" from="567060342#0" to="337277984#0" type="car" begin="28800" end="32400" vehsPerHour="26"/>
    <flow id="flow_170" from="567060342#0" to="542428845#0" type="car" begin="28800" end="32400" vehsPerHour="26"/>
    <flow id="flow_171" from="567060342#0" to="337277957#0" type="car" begin="28800" end="32400" vehsPerHour="26"/>
    <flow id="flow_172" from="40668087#1" to="542428845#0" type="car" begin="32400" end="36000" vehsPerHour="36"/>
    <flow id="flow_173" from="40668087#1" to="337277957#0" type="car" begin="32400" end="36000" vehsPerHour="36"/>
    <flow id="flow_174" from="40668087#1" to="1053072563" type="car" begin="32400" end="36000" vehsPerHour="36"/>
    <flow id="flow_175" from="40668087#1" to="337277973#1" type="car" begin="32400" end="36000" vehsPerHour="36"/>
    <flow id="flow_176" from="40668087#1" to="337277984#0" type="car" begin="32400" end="36000" vehsPerHour="36"/>
    <flow id="flow_177" from="40668087#1" to="337277970#1" type="car" begin="32400" end="36000" vehsPerHour="36"/>
    <flow id="flow_178" from="40668087#1" to="337277951#1" type="car" begin="32400" end="36000" vehsPerHour="36"/>
    <flow id="flow_179" from="49217102" to="337277951#3" type="car" begin="32400" end="36000" vehsPerHour="36"/>
    <flow id="flow_180" from="49217102" to="1053072563" type="car" begin="32400" end="36000" vehsPerHour="36"/>
    <flow id="flow_181" from="49217102" to="337277973#1" type="car" begin="32400" end="36000" vehsPerHour="36"/>
    <flow id="flow_182" from="49217102" to="337277984#0" type="car" begin="32400" end="36000" vehsPerHour="36"/>
    <flow id="flow_183" from="49217102" to="542428845#0" type="car" begin="32400" end="36000" vehsPerHour="36"/>
    <flow id="flow_184" from="42143912#5" to="337277957#0" type="car" begin="32400" end="36000" vehsPerHour="36"/>
    <flow id="flow_185" from="42143912#5" to="542428845#0" type="car" begin="32400" end="36000" vehsPerHour="36"/>
    <flow id="flow_186" from="42143912#5" to="1053072563" type="car" begin="32400" end="36000" vehsPerHour="36"/>
    <flow id="flow_187" from="42143912#5" to="337277973#1" type="car" begin="32400" end="36000" vehsPerHour="36"/>
    <flow id="flow_188" from="567060342#0" to="337277984#0" type="car" begin="32400" end="36000" vehsPerHour="36"/>
    <flow id="flow_189" from="567060342#0" to="542428845#0" type="car" begin="32400" end="36000" vehsPerHour="36"/>
    <flow id="flow_190" from="567060342#0" to="337277957#0" type="car" begin="32400" end="36000" vehsPerHour="36"/>
    <flow id="flow_191" from="40668087#1" to="542428845#0" type="car" begin="36000" end="39600" vehsPerHour="47"/>
    <flow id="flow_192" from="40668087#1" to="337277957#0" type="car" begin="36000" end="39600" vehsPerHour="47"/>
    <flow id="flow_193" from="40668087#1" to="1053072563" type="car" begin="36000" end="39600" vehsPerHour="47"/>
    <flow id="flow_194" from="40668087#1" to="337277973#1" type="car" begin="36000" end="39600" vehsPerHour="47"/>
    <flow id="flow_195" from="40668087#1" to="337277984#0" type="car" begin="36000" end="39600" vehsPerHour="47"/>
    <flow id="flow_196" from="40668087#1" to="337277970#1" type="car" begin="36000" end="39600" vehsPerHour="47"/>
    <flow id="flow_197" from="40668087#1" to="337277951#1" type="car" begin="36000" end="39600" vehsPerHour="47"/>
    <flow id="flow_198" from="49217102" to="337277951#3" type="car" begin="36000" end="39600" vehsPerHour="47"/>
    <flow id="flow_199" from="49217102" to="1053072563" type="car" begin="36000" end="39600" vehsPerHour="47"/>
    <flow id="flow_200" from="49217102" to="337277973#1" type="car" begin="36000" end="39600" vehsPerHour="47"/>
    <flow id="flow_201" from="49217102" to="337277984#0" type="car" begin="36000" end="39600" vehsPerHour="47"/>
    <flow id="flow_202" from="49217102" to="542428845#0" type="car" begin="36000" end="39600" vehsPerHour="47"/>
    <flow id="flow_203" from="42143912#5" to="337277957#0" type="car" begin="36000" end="39600" vehsPerHour="47"/>
    <flow id="flow_204" from="42143912#5" to="542428845#0" type="car" begin="36000" end="39600" vehsPerHour="47"/>
    <flow id="flow_205" from="42143912#5" to="1053072563" type="car" begin="36000" end="39600" vehsPerHour="47"/>
    <flow id="flow_206" from="42143912#5" to="337277973#1" type="car" begin="36000" end="39600" vehsPerHour="47"/>
    <flow id="flow_207" from="567060342#0" to="337277984#0" type="car" begin="36000" end="39600" vehsPerHour="47"/>
    <flow id="flow_208" from="567060342#0" to="542428845#0" type="car" begin="36000" end="39600" vehsPerHour="47"/>
    <flow id="flow_209" from="567060342#0" to="337277957#0" type="car" begin="36000" end="39600" vehsPerHour="47"/>
    <flow id="flow_210" from="40668087#1" to="542428845#0" type="car" begin="39600" end="43200" vehsPerHour="36"/>
    <flow id="flow_211" from="40668087#1" to="337277957#0" type="car" begin="39600" end="43200" vehsPerHour="36"/>
    <flow id="flow_212" from="40668087#1" to="1053072563" type="car" begin="39600" end="43200" vehsPerHour="36"/>
    <flow id="flow_213" from="40668087#1" to="337277973#1" type="car" begin="39600" end="43200" vehsPerHour="36"/>
    <flow id="flow_214" from="40668087#1" to="337277984#0" type="car" begin="39600" end="43200" vehsPerHour="36"/>
    <flow id="flow_215" from="40668087#1" to="337277970#1" type="car" begin="39600" end="43200" vehsPerHour="36"/>
    <flow id="flow_216" from="40668087#1" to="337277951#1" type="car" begin="39600" end="43200" vehsPerHour="36"/>
    <flow id="flow_217" from="49217102" to="337277951#3" type="car" begin="39600" end="43200" vehsPerHour="36"/>
    <flow id="flow_218" from="49217102" to="1053072563" type="car" begin="39600" end="43200" vehsPerHour="36"/>
    <flow id="flow_219" from="49217102" to="337277973#1" type="car" begin="39600" end="43200" vehsPerHour="36"/>
    <flow id="flow_220" from="49217102" to="337277984#0" type="car" begin="39600" end="43200" vehsPerHour="36"/>
    <flow id="flow_221" from="49217102" to="542428845#0" type="car" begin="39600" end="43200" vehsPerHour="36"/>
    <flow id="flow_222" from="42143912#5" to="337277957#0" type="car" begin="39600" end="43200" vehsPerHour="36"/>
    <flow id="flow_223" from="42143912#5" to="542428845#0" type="car" begin="39600" end="43200" vehsPerHour="36"/>
    <flow id="flow_224" from="42143912#5" to="1053072563" type="car" begin="39600" end="43200" vehsPerHour="36"/>
    <flow id="flow_225" from="42143912#5" to="337277973#1" type="car" begin="39600" end="43200" vehsPerHour="36"/>
    <flow id="flow_226" from="567060342#0" to="337277984#0" type="car" begin="39600" end="43200" vehsPerHour="36"/>
    <flow id="flow_227" from="567060342#0" to="542428845#0" type="car" begin="39600" end="43200" vehsPerHour="36"/>
    <flow id="flow_228" from="567060342#0" to="337277957#0" type="car" begin="39600" end="43200" vehsPerHour="36"/>
</routes>
