<?xml version="1.0" encoding="UTF-8"?>
<routes>
    <vType id="car" accel="1.2" decel="3.0" sigma="0.5" length="4.2" maxSpeed="13.9"/>
    <flow id="f1" from="40668087#1" to="542428845#0" type="car" begin="0" end="3600" vehsPerHour="44"/>
    <flow id="f2" from="40668087#1" to="337277957#0" type="car" begin="0" end="3600" vehsPerHour="44"/>
    <flow id="f3" from="40668087#1" to="1053072563" type="car" begin="0" end="3600" vehsPerHour="44"/>
    <flow id="f4" from="40668087#1" to="337277973#1" type="car" begin="0" end="3600" vehsPerHour="44"/>
    <flow id="f5" from="40668087#1" to="337277984#0" type="car" begin="0" end="3600" vehsPerHour="44"/>
    <flow id="f6" from="40668087#1" to="337277970#1" type="car" begin="0" end="3600" vehsPerHour="44"/>
    <flow id="f7" from="40668087#1" to="337277951#1" type="car" begin="0" end="3600" vehsPerHour="44"/>
    <flow id="f8" from="49217102" to="337277951#3" type="car" begin="0" end="3600" vehsPerHour="44"/>
    <flow id="f9" from="49217102" to="1053072563" type="car" begin="0" end="3600" vehsPerHour="44"/>
    <flow id="f10" from="49217102" to="337277973#1" type="car" begin="0" end="3600" vehsPerHour="44"/>
    <flow id="f11" from="49217102" to="337277984#0" type="car" begin="0" end="3600" vehsPerHour="44"/>
    <flow id="f12" from="49217102" to="542428845#0" type="car" begin="0" end="3600" vehsPerHour="44"/>
    <flow id="f13" from="42143912#5" to="337277957#0" type="car" begin="0" end="3600" vehsPerHour="44"/>
    <flow id="f14" from="42143912#5" to="542428845#0" type="car" begin="0" end="3600" vehsPerHour="44"/>
    <flow id="f15" from="42143912#5" to="1053072563" type="car" begin="0" end="3600" vehsPerHour="44"/>
    <flow id="f16" from="42143912#5" to="337277973#1" type="car" begin="0" end="3600" vehsPerHour="44"/>
    <flow id="f17" from="567060342#0" to="337277984#0" type="car" begin="0" end="3600" vehsPerHour="44"/>
    <flow id="f18" from="567060342#0" to="542428845#0" type="car" begin="0" end="3600" vehsPerHour="44"/>
    <flow id="f19" from="567060342#0" to="337277957#0" type="car" begin="0" end="3600" vehsPerHour="44"/>
    <flow id="f20" from="40668087#1" to="542428845#0" type="car" begin="3600" end="7200" vehsPerHour="62"/>
    <flow id="f21" from="40668087#1" to="337277957#0" type="car" begin="3600" end="7200" vehsPerHour="62"/>
    <flow id="f22" from="40668087#1" to="1053072563" type="car" begin="3600" end="7200" vehsPerHour="62"/>
    <flow id="f23" from="40668087#1" to="337277973#1" type="car" begin="3600" end="7200" vehsPerHour="62"/>
    <flow id="f24" from="40668087#1" to="337277984#0" type="car" begin="3600" end="7200" vehsPerHour="62"/>
    <flow id="f25" from="40668087#1" to="337277970#1" type="car" begin="3600" end="7200" vehsPerHour="62"/>
    <flow id="f26" from="40668087#1" to="337277951#1" type="car" begin="3600" end="7200" vehsPerHour="62"/>
    <flow id="f27" from="49217102" to="337277951#3" type="car" begin="3600" end="7200" vehsPerHour="62"/>
    <flow id="f28" from="49217102" to="1053072563" type="car" begin="3600" end="7200" vehsPerHour="62"/>
    <flow id="f29" from="49217102" to="337277973#1" type="car" begin="3600" end="7200" vehsPerHour="62"/>
    <flow id="f30" from="49217102" to="337277984#0" type="car" begin="3600" end="7200" vehsPerHour="62"/>
    <flow id="f31" from="49217102" to="542428845#0" type="car" begin="3600" end="7200" vehsPerHour="62"/>
    <flow id="f32" from="42143912#5" to="337277957#0" type="car" begin="3600" end="7200" vehsPerHour="62"/>
    <flow id="f33" from="42143912#5" to="542428845#0" type="car" begin="3600" end="7200" vehsPerHour="62"/>
    <flow id="f34" from="42143912#5" to="1053072563" type="car" begin="3600" end="7200" vehsPerHour="62"/>
    <flow id="f35" from="42143912#5" to="337277973#1" type="car" begin="3600" end="7200" vehsPerHour="62"/>
    <flow id="f36" from="567060342#0" to="337277984#0" type="car" begin="3600" end="7200" vehsPerHour="62"/>
    <flow id="f37" from="567060342#0" to="542428845#0" type="car" begin="3600" end="7200" vehsPerHour="62"/>
    <flow id="f38" from="567060342#0" to="337277957#0" type="car" begin="3600" end="7200" vehsPerHour="62"/>
    <flow id="f39" from="40668087#1" to="542428845#0" type="car" begin="7200" end="10800" vehsPerHour="80"/>
    <flow id="f40" from="40668087#1" to="337277957#0" type="car" begin="7200" end="10800" vehsPerHour="80"/>
    <flow id="f41" from="40668087#1" to="1053072563" type="car" begin="7200" end="10800" vehsPerHour="80"/>
    <flow id="f42" from="40668087#1" to="337277973#1" type="car" begin="7200" end="10800" vehsPerHour="80"/>
    <flow id="f43" from="40668087#1" to="337277984#0" type="car" begin="7200" end="10800" vehsPerHour="80"/>
    <flow id="f44" from="40668087#1" to="337277970#1" type="car" begin="7200" end="10800" vehsPerHour="80"/>
    <flow id="f45" from="40668087#1" to="337277951#1" type="car" begin="7200" end="10800" vehsPerHour="80"/>
    <flow id="f46" from="49217102" to="337277951#3" type="car" begin="7200" end="10800" vehsPerHour="80"/>
    <flow id="f47" from="49217102" to="1053072563" type="car" begin="7200" end="10800" vehsPerHour="80"/>
    <flow id="f48" from="49217102" to="337277973#1" type="car" begin="7200" end="10800" vehsPerHour="80"/>
    <flow id="f49" from="49217102" to="337277984#0" type="car" begin="7200" end="10800" vehsPerHour="80"/>
    <flow id="f50" from="49217102" to="542428845#0" type="car" begin="7200" end="10800" vehsPerHour="80"/>
    <flow id="f51" from="42143912#5" to="337277957#0" type="car" begin="7200" end="10800" vehsPerHour="80"/>
    <flow id="f52" from="42143912#5" to="542428845#0" type="car" begin="7200" end="10800" vehsPerHour="80"/>
    <flow id="f53" from="42143912#5" to="1053072563" type="car" begin="7200" end="10800" vehsPerHour="80"/>
    <flow id="f54" from="42143912#5" to="337277973#1" type="car" begin="7200" end="10800" vehsPerHour="80"/>
    <flow id="f55" from="567060342#0" to="337277984#0" type="car" begin="7200" end="10800" vehsPerHour="80"/>
    <flow id="f56" from="567060342#0" to="542428845#0" type="car" begin="7200" end="10800" vehsPerHour="80"/>
    <flow id="f57" from="567060342#0" to="337277957#0" type="car" begin="7200" end="10800" vehsPerHour="80"/>
    <flow id="f58" from="40668087#1" to="542428845#0" type="car" begin="10800" end="14400" vehsPerHour="62"/>
    <flow id="f59" from="40668087#1" to="337277957#0" type="car" begin="10800" end="14400" vehsPerHour="62"/>
    <flow id="f60" from="40668087#1" to="1053072563" type="car" begin="10800" end="14400" vehsPerHour="62"/>
    <flow id="f61" from="40668087#1" to="337277973#1" type="car" begin="10800" end="14400" vehsPerHour="62"/>
    <flow id="f62" from="40668087#1" to="337277984#0" type="car" begin="10800" end="14400" vehsPerHour="62"/>
    <flow id="f63" from="40668087#1" to="337277970#1" type="car" begin="10800" end="14400" vehsPerHour="62"/>
    <flow id="f64" from="40668087#1" to="337277951#1" type="car" begin="10800" end="14400" vehsPerHour="62"/>
    <flow id="f65" from="49217102" to="337277951#3" type="car" begin="10800" end="14400" vehsPerHour="62"/>
    <flow id="f66" from="49217102" to="1053072563" type="car" begin="10800" end="14400" vehsPerHour="62"/>
    <flow id="f67" from="49217102" to="337277973#1" type="car" begin="10800" end="14400" vehsPerHour="62"/>
    <flow id="f68" from="49217102" to="337277984#0" type="car" begin="10800" end="14400" vehsPerHour="62"/>
    <flow id="f69" from="49217102" to="542428845#0" type="car" begin="10800" end="14400" vehsPerHour="62"/>
    <flow id="f70" from="42143912#5" to="337277957#0" type="car" begin="10800" end="14400" vehsPerHour="62"/>
    <flow id="f71" from="42143912#5" to="542428845#0" type="car" begin="10800" end="14400" vehsPerHour="62"/>
    <flow id="f72" from="42143912#5" to="1053072563" type="car" begin="10800" end="14400" vehsPerHour="62"/>
    <flow id="f73" from="42143912#5" to="337277973#1" type="car" begin="10800" end="14400" vehsPerHour="62"/>
    <flow id="f74" from="567060342#0" to="337277984#0" type="car" begin="10800" end="14400" vehsPerHour="62"/>
    <flow id="f75" from="567060342#0" to="542428845#0" type="car" begin="10800" end="14400" vehsPerHour="62"/>
    <flow id="f76" from="567060342#0" to="337277957#0" type="car" begin="10800" end="14400" vehsPerHour="62"/>
</routes>
