<?xml version="1.0" encoding="UTF-8"?>
<routes>
    <vType id="car" accel="1.2" decel="3.0" sigma="0.5" length="4.2" maxSpeed="13.9" />
    <flow id="f1" from="40668087#1" to="542428845#0" type="car" begin="0" end="14400" vehsPerHour="41"/>
    <flow id="f2" from="40668087#1" to="337277957#0" type="car" begin="0" end="14400" vehsPerHour="41"/>
    <flow id="f3" from="40668087#1" to="1053072563" type="car" begin="0" end="14400" vehsPerHour="41"/>
    <flow id="f4" from="40668087#1" to="337277973#1" type="car" begin="0" end="14400" vehsPerHour="41"/>
    <flow id="f5" from="40668087#1" to="337277984#0" type="car" begin="0" end="14400" vehsPerHour="41"/>
    <flow id="f6" from="40668087#1" to="337277970#1" type="car" begin="0" end="14400" vehsPerHour="41"/>
    <flow id="f7" from="40668087#1" to="337277951#1" type="car" begin="0" end="14400" vehsPerHour="41"/>
    <flow id="f8" from="49217102" to="337277951#3" type="car" begin="0" end="14400" vehsPerHour="41"/>
    <flow id="f9" from="49217102" to="1053072563" type="car" begin="0" end="14400" vehsPerHour="41"/>
    <flow id="f10" from="49217102" to="337277973#1" type="car" begin="0" end="14400" vehsPerHour="41"/>
    <flow id="f11" from="49217102" to="337277984#0" type="car" begin="0" end="14400" vehsPerHour="41"/>
    <flow id="f12" from="49217102" to="542428845#0" type="car" begin="0" end="14400" vehsPerHour="41"/>
    <flow id="f13" from="42143912#5" to="337277957#0" type="car" begin="0" end="14400" vehsPerHour="41"/>
    <flow id="f14" from="42143912#5" to="542428845#0" type="car" begin="0" end="14400" vehsPerHour="41"/>
    <flow id="f15" from="42143912#5" to="1053072563" type="car" begin="0" end="14400" vehsPerHour="41"/>
    <flow id="f16" from="42143912#5" to="337277973#1" type="car" begin="0" end="14400" vehsPerHour="41"/>
    <flow id="f17" from="567060342#0" to="337277984#0" type="car" begin="0" end="14400" vehsPerHour="41"/>
    <flow id="f18" from="567060342#0" to="542428845#0" type="car" begin="0" end="14400" vehsPerHour="41"/>
    <flow id="f19" from="567060342#0" to="337277957#0" type="car" begin="0" end="14400" vehsPerHour="41"/>
    <flow id="f20" from="40668087#1" to="542428845#0" type="car" begin="14400" end="16200" vehsPerHour="47"/>
    <flow id="f21" from="40668087#1" to="337277957#0" type="car" begin="14400" end="16200" vehsPerHour="47"/>
    <flow id="f22" from="40668087#1" to="1053072563" type="car" begin="14400" end="16200" vehsPerHour="47"/>
    <flow id="f23" from="40668087#1" to="337277973#1" type="car" begin="14400" end="16200" vehsPerHour="47"/>
    <flow id="f24" from="40668087#1" to="337277984#0" type="car" begin="14400" end="16200" vehsPerHour="47"/>
    <flow id="f25" from="40668087#1" to="337277970#1" type="car" begin="14400" end="16200" vehsPerHour="47"/>
    <flow id="f26" from="40668087#1" to="337277951#1" type="car" begin="14400" end="16200" vehsPerHour="47"/>
    <flow id="f27" from="49217102" to="337277951#3" type="car" begin="14400" end="16200" vehsPerHour="47"/>
    <flow id="f28" from="49217102" to="1053072563" type="car" begin="14400" end="16200" vehsPerHour="47"/>
    <flow id="f29" from="49217102" to="337277973#1" type="car" begin="14400" end="16200" vehsPerHour="47"/>
    <flow id="f30" from="49217102" to="337277984#0" type="car" begin="14400" end="16200" vehsPerHour="47"/>
    <flow id="f31" from="49217102" to="542428845#0" type="car" begin="14400" end="16200" vehsPerHour="47"/>
    <flow id="f32" from="42143912#5" to="337277957#0" type="car" begin="14400" end="16200" vehsPerHour="47"/>
    <flow id="f33" from="42143912#5" to="542428845#0" type="car" begin="14400" end="16200" vehsPerHour="47"/>
    <flow id="f34" from="42143912#5" to="1053072563" type="car" begin="14400" end="16200" vehsPerHour="47"/>
    <flow id="f35" from="42143912#5" to="337277973#1" type="car" begin="14400" end="16200" vehsPerHour="47"/>
    <flow id="f36" from="567060342#0" to="337277984#0" type="car" begin="14400" end="16200" vehsPerHour="47"/>
    <flow id="f37" from="567060342#0" to="542428845#0" type="car" begin="14400" end="16200" vehsPerHour="47"/>
    <flow id="f38" from="567060342#0" to="337277957#0" type="car" begin="14400" end="16200" vehsPerHour="47"/>
    <flow id="f39" from="40668087#1" to="542428845#0" type="car" begin="16200" end="18000" vehsPerHour="55"/>
    <flow id="f40" from="40668087#1" to="337277957#0" type="car" begin="16200" end="18000" vehsPerHour="55"/>
    <flow id="f41" from="40668087#1" to="1053072563" type="car" begin="16200" end="18000" vehsPerHour="55"/>
    <flow id="f42" from="40668087#1" to="337277973#1" type="car" begin="16200" end="18000" vehsPerHour="55"/>
    <flow id="f43" from="40668087#1" to="337277984#0" type="car" begin="16200" end="18000" vehsPerHour="55"/>
    <flow id="f44" from="40668087#1" to="337277970#1" type="car" begin="16200" end="18000" vehsPerHour="55"/>
    <flow id="f45" from="40668087#1" to="337277951#1" type="car" begin="16200" end="18000" vehsPerHour="55"/>
    <flow id="f46" from="49217102" to="337277951#3" type="car" begin="16200" end="18000" vehsPerHour="55"/>
    <flow id="f47" from="49217102" to="1053072563" type="car" begin="16200" end="18000" vehsPerHour="55"/>
    <flow id="f48" from="49217102" to="337277973#1" type="car" begin="16200" end="18000" vehsPerHour="55"/>
    <flow id="f49" from="49217102" to="337277984#0" type="car" begin="16200" end="18000" vehsPerHour="55"/>
    <flow id="f50" from="49217102" to="542428845#0" type="car" begin="16200" end="18000" vehsPerHour="55"/>
    <flow id="f51" from="42143912#5" to="337277957#0" type="car" begin="16200" end="18000" vehsPerHour="55"/>
    <flow id="f52" from="42143912#5" to="542428845#0" type="car" begin="16200" end="18000" vehsPerHour="55"/>
    <flow id="f53" from="42143912#5" to="1053072563" type="car" begin="16200" end="18000" vehsPerHour="55"/>
    <flow id="f54" from="42143912#5" to="337277973#1" type="car" begin="16200" end="18000" vehsPerHour="55"/>
    <flow id="f55" from="567060342#0" to="337277984#0" type="car" begin="16200" end="18000" vehsPerHour="55"/>
    <flow id="f56" from="567060342#0" to="542428845#0" type="car" begin="16200" end="18000" vehsPerHour="55"/>
    <flow id="f57" from="567060342#0" to="337277957#0" type="car" begin="16200" end="18000" vehsPerHour="55"/>
    <flow id="f58" from="40668087#1" to="542428845#0" type="car" begin="18000" end="19800" vehsPerHour="63"/>
    <flow id="f59" from="40668087#1" to="337277957#0" type="car" begin="18000" end="19800" vehsPerHour="63"/>
    <flow id="f60" from="40668087#1" to="1053072563" type="car" begin="18000" end="19800" vehsPerHour="63"/>
    <flow id="f61" from="40668087#1" to="337277973#1" type="car" begin="18000" end="19800" vehsPerHour="63"/>
    <flow id="f62" from="40668087#1" to="337277984#0" type="car" begin="18000" end="19800" vehsPerHour="63"/>
    <flow id="f63" from="40668087#1" to="337277970#1" type="car" begin="18000" end="19800" vehsPerHour="63"/>
    <flow id="f64" from="40668087#1" to="337277951#1" type="car" begin="18000" end="19800" vehsPerHour="63"/>
    <flow id="f65" from="49217102" to="337277951#3" type="car" begin="18000" end="19800" vehsPerHour="63"/>
    <flow id="f66" from="49217102" to="1053072563" type="car" begin="18000" end="19800" vehsPerHour="63"/>
    <flow id="f67" from="49217102" to="337277973#1" type="car" begin="18000" end="19800" vehsPerHour="63"/>
    <flow id="f68" from="49217102" to="337277984#0" type="car" begin="18000" end="19800" vehsPerHour="63"/>
    <flow id="f69" from="49217102" to="542428845#0" type="car" begin="18000" end="19800" vehsPerHour="63"/>
    <flow id="f70" from="42143912#5" to="337277957#0" type="car" begin="18000" end="19800" vehsPerHour="63"/>
    <flow id="f71" from="42143912#5" to="542428845#0" type="car" begin="18000" end="19800" vehsPerHour="63"/>
    <flow id="f72" from="42143912#5" to="1053072563" type="car" begin="18000" end="19800" vehsPerHour="63"/>
    <flow id="f73" from="42143912#5" to="337277973#1" type="car" begin="18000" end="19800" vehsPerHour="63"/>
    <flow id="f74" from="567060342#0" to="337277984#0" type="car" begin="18000" end="19800" vehsPerHour="63"/>
    <flow id="f75" from="567060342#0" to="542428845#0" type="car" begin="18000" end="19800" vehsPerHour="63"/>
    <flow id="f76" from="567060342#0" to="337277957#0" type="car" begin="18000" end="19800" vehsPerHour="63"/>
    <flow id="f77" from="40668087#1" to="542428845#0" type="car" begin="19800" end="21600" vehsPerHour="71"/>
    <flow id="f78" from="40668087#1" to="337277957#0" type="car" begin="19800" end="21600" vehsPerHour="71"/>
    <flow id="f79" from="40668087#1" to="1053072563" type="car" begin="19800" end="21600" vehsPerHour="71"/>
    <flow id="f80" from="40668087#1" to="337277973#1" type="car" begin="19800" end="21600" vehsPerHour="71"/>
    <flow id="f81" from="40668087#1" to="337277984#0" type="car" begin="19800" end="21600" vehsPerHour="71"/>
    <flow id="f82" from="40668087#1" to="337277970#1" type="car" begin="19800" end="21600" vehsPerHour="71"/>
    <flow id="f83" from="40668087#1" to="337277951#1" type="car" begin="19800" end="21600" vehsPerHour="71"/>
    <flow id="f84" from="49217102" to="337277951#3" type="car" begin="19800" end="21600" vehsPerHour="71"/>
    <flow id="f85" from="49217102" to="1053072563" type="car" begin="19800" end="21600" vehsPerHour="71"/>
    <flow id="f86" from="49217102" to="337277973#1" type="car" begin="19800" end="21600" vehsPerHour="71"/>
    <flow id="f87" from="49217102" to="337277984#0" type="car" begin="19800" end="21600" vehsPerHour="71"/>
    <flow id="f88" from="49217102" to="542428845#0" type="car" begin="19800" end="21600" vehsPerHour="71"/>
    <flow id="f89" from="42143912#5" to="337277957#0" type="car" begin="19800" end="21600" vehsPerHour="71"/>
    <flow id="f90" from="42143912#5" to="542428845#0" type="car" begin="19800" end="21600" vehsPerHour="71"/>
    <flow id="f91" from="42143912#5" to="1053072563" type="car" begin="19800" end="21600" vehsPerHour="71"/>
    <flow id="f92" from="42143912#5" to="337277973#1" type="car" begin="19800" end="21600" vehsPerHour="71"/>
    <flow id="f93" from="567060342#0" to="337277984#0" type="car" begin="19800" end="21600" vehsPerHour="71"/>
    <flow id="f94" from="567060342#0" to="542428845#0" type="car" begin="19800" end="21600" vehsPerHour="71"/>
    <flow id="f95" from="567060342#0" to="337277957#0" type="car" begin="19800" end="21600" vehsPerHour="71"/>
    <flow id="f96" from="40668087#1" to="542428845#0" type="car" begin="21600" end="23400" vehsPerHour="77"/>
    <flow id="f97" from="40668087#1" to="337277957#0" type="car" begin="21600" end="23400" vehsPerHour="77"/>
    <flow id="f98" from="40668087#1" to="1053072563" type="car" begin="21600" end="23400" vehsPerHour="77"/>
    <flow id="f99" from="40668087#1" to="337277973#1" type="car" begin="21600" end="23400" vehsPerHour="77"/>
    <flow id="f100" from="40668087#1" to="337277984#0" type="car" begin="21600" end="23400" vehsPerHour="77"/>
    <flow id="f101" from="40668087#1" to="337277970#1" type="car" begin="21600" end="23400" vehsPerHour="77"/>
    <flow id="f102" from="40668087#1" to="337277951#1" type="car" begin="21600" end="23400" vehsPerHour="77"/>
    <flow id="f103" from="49217102" to="337277951#3" type="car" begin="21600" end="23400" vehsPerHour="77"/>
    <flow id="f104" from="49217102" to="1053072563" type="car" begin="21600" end="23400" vehsPerHour="77"/>
    <flow id="f105" from="49217102" to="337277973#1" type="car" begin="21600" end="23400" vehsPerHour="77"/>
    <flow id="f106" from="49217102" to="337277984#0" type="car" begin="21600" end="23400" vehsPerHour="77"/>
    <flow id="f107" from="49217102" to="542428845#0" type="car" begin="21600" end="23400" vehsPerHour="77"/>
    <flow id="f108" from="42143912#5" to="337277957#0" type="car" begin="21600" end="23400" vehsPerHour="77"/>
    <flow id="f109" from="42143912#5" to="542428845#0" type="car" begin="21600" end="23400" vehsPerHour="77"/>
    <flow id="f110" from="42143912#5" to="1053072563" type="car" begin="21600" end="23400" vehsPerHour="77"/>
    <flow id="f111" from="42143912#5" to="337277973#1" type="car" begin="21600" end="23400" vehsPerHour="77"/>
    <flow id="f112" from="567060342#0" to="337277984#0" type="car" begin="21600" end="23400" vehsPerHour="77"/>
    <flow id="f113" from="567060342#0" to="542428845#0" type="car" begin="21600" end="23400" vehsPerHour="77"/>
    <flow id="f114" from="567060342#0" to="337277957#0" type="car" begin="21600" end="23400" vehsPerHour="77"/>
    <flow id="f115" from="40668087#1" to="542428845#0" type="car" begin="23400" end="25200" vehsPerHour="83"/>
    <flow id="f116" from="40668087#1" to="337277957#0" type="car" begin="23400" end="25200" vehsPerHour="83"/>
    <flow id="f117" from="40668087#1" to="1053072563" type="car" begin="23400" end="25200" vehsPerHour="83"/>
    <flow id="f118" from="40668087#1" to="337277973#1" type="car" begin="23400" end="25200" vehsPerHour="83"/>
    <flow id="f119" from="40668087#1" to="337277984#0" type="car" begin="23400" end="25200" vehsPerHour="83"/>
    <flow id="f120" from="40668087#1" to="337277970#1" type="car" begin="23400" end="25200" vehsPerHour="83"/>
    <flow id="f121" from="40668087#1" to="337277951#1" type="car" begin="23400" end="25200" vehsPerHour="83"/>
    <flow id="f122" from="49217102" to="337277951#3" type="car" begin="23400" end="25200" vehsPerHour="83"/>
    <flow id="f123" from="49217102" to="1053072563" type="car" begin="23400" end="25200" vehsPerHour="83"/>
    <flow id="f124" from="49217102" to="337277973#1" type="car" begin="23400" end="25200" vehsPerHour="83"/>
    <flow id="f125" from="49217102" to="337277984#0" type="car" begin="23400" end="25200" vehsPerHour="83"/>
    <flow id="f126" from="49217102" to="542428845#0" type="car" begin="23400" end="25200" vehsPerHour="83"/>
    <flow id="f127" from="42143912#5" to="337277957#0" type="car" begin="23400" end="25200" vehsPerHour="83"/>
    <flow id="f128" from="42143912#5" to="542428845#0" type="car" begin="23400" end="25200" vehsPerHour="83"/>
    <flow id="f129" from="42143912#5" to="1053072563" type="car" begin="23400" end="25200" vehsPerHour="83"/>
    <flow id="f130" from="42143912#5" to="337277973#1" type="car" begin="23400" end="25200" vehsPerHour="83"/>
    <flow id="f131" from="567060342#0" to="337277984#0" type="car" begin="23400" end="25200" vehsPerHour="83"/>
    <flow id="f132" from="567060342#0" to="542428845#0" type="car" begin="23400" end="25200" vehsPerHour="83"/>
    <flow id="f133" from="567060342#0" to="337277957#0" type="car" begin="23400" end="25200" vehsPerHour="83"/>
    <flow id="f134" from="40668087#1" to="542428845#0" type="car" begin="25200" end="27000" vehsPerHour="77"/>
    <flow id="f135" from="40668087#1" to="337277957#0" type="car" begin="25200" end="27000" vehsPerHour="77"/>
    <flow id="f136" from="40668087#1" to="1053072563" type="car" begin="25200" end="27000" vehsPerHour="77"/>
    <flow id="f137" from="40668087#1" to="337277973#1" type="car" begin="25200" end="27000" vehsPerHour="77"/>
    <flow id="f138" from="40668087#1" to="337277984#0" type="car" begin="25200" end="27000" vehsPerHour="77"/>
    <flow id="f139" from="40668087#1" to="337277970#1" type="car" begin="25200" end="27000" vehsPerHour="77"/>
    <flow id="f140" from="40668087#1" to="337277951#1" type="car" begin="25200" end="27000" vehsPerHour="77"/>
    <flow id="f141" from="49217102" to="337277951#3" type="car" begin="25200" end="27000" vehsPerHour="77"/>
    <flow id="f142" from="49217102" to="1053072563" type="car" begin="25200" end="27000" vehsPerHour="77"/>
    <flow id="f143" from="49217102" to="337277973#1" type="car" begin="25200" end="27000" vehsPerHour="77"/>
    <flow id="f144" from="49217102" to="337277984#0" type="car" begin="25200" end="27000" vehsPerHour="77"/>
    <flow id="f145" from="49217102" to="542428845#0" type="car" begin="25200" end="27000" vehsPerHour="77"/>
    <flow id="f146" from="42143912#5" to="337277957#0" type="car" begin="25200" end="27000" vehsPerHour="77"/>
    <flow id="f147" from="42143912#5" to="542428845#0" type="car" begin="25200" end="27000" vehsPerHour="77"/>
    <flow id="f148" from="42143912#5" to="1053072563" type="car" begin="25200" end="27000" vehsPerHour="77"/>
    <flow id="f149" from="42143912#5" to="337277973#1" type="car" begin="25200" end="27000" vehsPerHour="77"/>
    <flow id="f150" from="567060342#0" to="337277984#0" type="car" begin="25200" end="27000" vehsPerHour="77"/>
    <flow id="f151" from="567060342#0" to="542428845#0" type="car" begin="25200" end="27000" vehsPerHour="77"/>
    <flow id="f152" from="567060342#0" to="337277957#0" type="car" begin="25200" end="27000" vehsPerHour="77"/>
    <flow id="f153" from="40668087#1" to="542428845#0" type="car" begin="27000" end="28800" vehsPerHour="71"/>
    <flow id="f154" from="40668087#1" to="337277957#0" type="car" begin="27000" end="28800" vehsPerHour="71"/>
    <flow id="f155" from="40668087#1" to="1053072563" type="car" begin="27000" end="28800" vehsPerHour="71"/>
    <flow id="f156" from="40668087#1" to="337277973#1" type="car" begin="27000" end="28800" vehsPerHour="71"/>
    <flow id="f157" from="40668087#1" to="337277984#0" type="car" begin="27000" end="28800" vehsPerHour="71"/>
    <flow id="f158" from="40668087#1" to="337277970#1" type="car" begin="27000" end="28800" vehsPerHour="71"/>
    <flow id="f159" from="40668087#1" to="337277951#1" type="car" begin="27000" end="28800" vehsPerHour="71"/>
    <flow id="f160" from="49217102" to="337277951#3" type="car" begin="27000" end="28800" vehsPerHour="71"/>
    <flow id="f161" from="49217102" to="1053072563" type="car" begin="27000" end="28800" vehsPerHour="71"/>
    <flow id="f162" from="49217102" to="337277973#1" type="car" begin="27000" end="28800" vehsPerHour="71"/>
    <flow id="f163" from="49217102" to="337277984#0" type="car" begin="27000" end="28800" vehsPerHour="71"/>
    <flow id="f164" from="49217102" to="542428845#0" type="car" begin="27000" end="28800" vehsPerHour="71"/>
    <flow id="f165" from="42143912#5" to="337277957#0" type="car" begin="27000" end="28800" vehsPerHour="71"/>
    <flow id="f166" from="42143912#5" to="542428845#0" type="car" begin="27000" end="28800" vehsPerHour="71"/>
    <flow id="f167" from="42143912#5" to="1053072563" type="car" begin="27000" end="28800" vehsPerHour="71"/>
    <flow id="f168" from="42143912#5" to="337277973#1" type="car" begin="27000" end="28800" vehsPerHour="71"/>
    <flow id="f169" from="567060342#0" to="337277984#0" type="car" begin="27000" end="28800" vehsPerHour="71"/>
    <flow id="f170" from="567060342#0" to="542428845#0" type="car" begin="27000" end="28800" vehsPerHour="71"/>
    <flow id="f171" from="567060342#0" to="337277957#0" type="car" begin="27000" end="28800" vehsPerHour="71"/>
    <flow id="f172" from="40668087#1" to="542428845#0" type="car" begin="28800" end="30600" vehsPerHour="63"/>
    <flow id="f173" from="40668087#1" to="337277957#0" type="car" begin="28800" end="30600" vehsPerHour="63"/>
    <flow id="f174" from="40668087#1" to="1053072563" type="car" begin="28800" end="30600" vehsPerHour="63"/>
    <flow id="f175" from="40668087#1" to="337277973#1" type="car" begin="28800" end="30600" vehsPerHour="63"/>
    <flow id="f176" from="40668087#1" to="337277984#0" type="car" begin="28800" end="30600" vehsPerHour="63"/>
    <flow id="f177" from="40668087#1" to="337277970#1" type="car" begin="28800" end="30600" vehsPerHour="63"/>
    <flow id="f178" from="40668087#1" to="337277951#1" type="car" begin="28800" end="30600" vehsPerHour="63"/>
    <flow id="f179" from="49217102" to="337277951#3" type="car" begin="28800" end="30600" vehsPerHour="63"/>
    <flow id="f180" from="49217102" to="1053072563" type="car" begin="28800" end="30600" vehsPerHour="63"/>
    <flow id="f181" from="49217102" to="337277973#1" type="car" begin="28800" end="30600" vehsPerHour="63"/>
    <flow id="f182" from="49217102" to="337277984#0" type="car" begin="28800" end="30600" vehsPerHour="63"/>
    <flow id="f183" from="49217102" to="542428845#0" type="car" begin="28800" end="30600" vehsPerHour="63"/>
    <flow id="f184" from="42143912#5" to="337277957#0" type="car" begin="28800" end="30600" vehsPerHour="63"/>
    <flow id="f185" from="42143912#5" to="542428845#0" type="car" begin="28800" end="30600" vehsPerHour="63"/>
    <flow id="f186" from="42143912#5" to="1053072563" type="car" begin="28800" end="30600" vehsPerHour="63"/>
    <flow id="f187" from="42143912#5" to="337277973#1" type="car" begin="28800" end="30600" vehsPerHour="63"/>
    <flow id="f188" from="567060342#0" to="337277984#0" type="car" begin="28800" end="30600" vehsPerHour="63"/>
    <flow id="f189" from="567060342#0" to="542428845#0" type="car" begin="28800" end="30600" vehsPerHour="63"/>
    <flow id="f190" from="567060342#0" to="337277957#0" type="car" begin="28800" end="30600" vehsPerHour="63"/>
    <flow id="f191" from="40668087#1" to="542428845#0" type="car" begin="30600" end="32400" vehsPerHour="55"/>
    <flow id="f192" from="40668087#1" to="337277957#0" type="car" begin="30600" end="32400" vehsPerHour="55"/>
    <flow id="f193" from="40668087#1" to="1053072563" type="car" begin="30600" end="32400" vehsPerHour="55"/>
    <flow id="f194" from="40668087#1" to="337277973#1" type="car" begin="30600" end="32400" vehsPerHour="55"/>
    <flow id="f195" from="40668087#1" to="337277984#0" type="car" begin="30600" end="32400" vehsPerHour="55"/>
    <flow id="f196" from="40668087#1" to="337277970#1" type="car" begin="30600" end="32400" vehsPerHour="55"/>
    <flow id="f197" from="40668087#1" to="337277951#1" type="car" begin="30600" end="32400" vehsPerHour="55"/>
    <flow id="f198" from="49217102" to="337277951#3" type="car" begin="30600" end="32400" vehsPerHour="55"/>
    <flow id="f199" from="49217102" to="1053072563" type="car" begin="30600" end="32400" vehsPerHour="55"/>
    <flow id="f200" from="49217102" to="337277973#1" type="car" begin="30600" end="32400" vehsPerHour="55"/>
    <flow id="f201" from="49217102" to="337277984#0" type="car" begin="30600" end="32400" vehsPerHour="55"/>
    <flow id="f202" from="49217102" to="542428845#0" type="car" begin="30600" end="32400" vehsPerHour="55"/>
    <flow id="f203" from="42143912#5" to="337277957#0" type="car" begin="30600" end="32400" vehsPerHour="55"/>
    <flow id="f204" from="42143912#5" to="542428845#0" type="car" begin="30600" end="32400" vehsPerHour="55"/>
    <flow id="f205" from="42143912#5" to="1053072563" type="car" begin="30600" end="32400" vehsPerHour="55"/>
    <flow id="f206" from="42143912#5" to="337277973#1" type="car" begin="30600" end="32400" vehsPerHour="55"/>
    <flow id="f207" from="567060342#0" to="337277984#0" type="car" begin="30600" end="32400" vehsPerHour="55"/>
    <flow id="f208" from="567060342#0" to="542428845#0" type="car" begin="30600" end="32400" vehsPerHour="55"/>
    <flow id="f209" from="567060342#0" to="337277957#0" type="car" begin="30600" end="32400" vehsPerHour="55"/>
    <flow id="f210" from="40668087#1" to="542428845#0" type="car" begin="32400" end="34200" vehsPerHour="47"/>
    <flow id="f211" from="40668087#1" to="337277957#0" type="car" begin="32400" end="34200" vehsPerHour="47"/>
    <flow id="f212" from="40668087#1" to="1053072563" type="car" begin="32400" end="34200" vehsPerHour="47"/>
    <flow id="f213" from="40668087#1" to="337277973#1" type="car" begin="32400" end="34200" vehsPerHour="47"/>
    <flow id="f214" from="40668087#1" to="337277984#0" type="car" begin="32400" end="34200" vehsPerHour="47"/>
    <flow id="f215" from="40668087#1" to="337277970#1" type="car" begin="32400" end="34200" vehsPerHour="47"/>
    <flow id="f216" from="40668087#1" to="337277951#1" type="car" begin="32400" end="34200" vehsPerHour="47"/>
    <flow id="f217" from="49217102" to="337277951#3" type="car" begin="32400" end="34200" vehsPerHour="47"/>
    <flow id="f218" from="49217102" to="1053072563" type="car" begin="32400" end="34200" vehsPerHour="47"/>
    <flow id="f219" from="49217102" to="337277973#1" type="car" begin="32400" end="34200" vehsPerHour="47"/>
    <flow id="f220" from="49217102" to="337277984#0" type="car" begin="32400" end="34200" vehsPerHour="47"/>
    <flow id="f221" from="49217102" to="542428845#0" type="car" begin="32400" end="34200" vehsPerHour="47"/>
    <flow id="f222" from="42143912#5" to="337277957#0" type="car" begin="32400" end="34200" vehsPerHour="47"/>
    <flow id="f223" from="42143912#5" to="542428845#0" type="car" begin="32400" end="34200" vehsPerHour="47"/>
    <flow id="f224" from="42143912#5" to="1053072563" type="car" begin="32400" end="34200" vehsPerHour="47"/>
    <flow id="f225" from="42143912#5" to="337277973#1" type="car" begin="32400" end="34200" vehsPerHour="47"/>
    <flow id="f226" from="567060342#0" to="337277984#0" type="car" begin="32400" end="34200" vehsPerHour="47"/>
    <flow id="f227" from="567060342#0" to="542428845#0" type="car" begin="32400" end="34200" vehsPerHour="47"/>
    <flow id="f228" from="567060342#0" to="337277957#0" type="car" begin="32400" end="34200" vehsPerHour="47"/>
    <flow id="f229" from="40668087#1" to="542428845#0" type="car" begin="34200" end="36000" vehsPerHour="41"/>
    <flow id="f230" from="40668087#1" to="337277957#0" type="car" begin="34200" end="36000" vehsPerHour="41"/>
    <flow id="f231" from="40668087#1" to="1053072563" type="car" begin="34200" end="36000" vehsPerHour="41"/>
    <flow id="f232" from="40668087#1" to="337277973#1" type="car" begin="34200" end="36000" vehsPerHour="41"/>
    <flow id="f233" from="40668087#1" to="337277984#0" type="car" begin="34200" end="36000" vehsPerHour="41"/>
    <flow id="f234" from="40668087#1" to="337277970#1" type="car" begin="34200" end="36000" vehsPerHour="41"/>
    <flow id="f235" from="40668087#1" to="337277951#1" type="car" begin="34200" end="36000" vehsPerHour="41"/>
    <flow id="f236" from="49217102" to="337277951#3" type="car" begin="34200" end="36000" vehsPerHour="41"/>
    <flow id="f237" from="49217102" to="1053072563" type="car" begin="34200" end="36000" vehsPerHour="41"/>
    <flow id="f238" from="49217102" to="337277973#1" type="car" begin="34200" end="36000" vehsPerHour="41"/>
    <flow id="f239" from="49217102" to="337277984#0" type="car" begin="34200" end="36000" vehsPerHour="41"/>
    <flow id="f240" from="49217102" to="542428845#0" type="car" begin="34200" end="36000" vehsPerHour="41"/>
    <flow id="f241" from="42143912#5" to="337277957#0" type="car" begin="34200" end="36000" vehsPerHour="41"/>
    <flow id="f242" from="42143912#5" to="542428845#0" type="car" begin="34200" end="36000" vehsPerHour="41"/>
    <flow id="f243" from="42143912#5" to="1053072563" type="car" begin="34200" end="36000" vehsPerHour="41"/>
    <flow id="f244" from="42143912#5" to="337277973#1" type="car" begin="34200" end="36000" vehsPerHour="41"/>
    <flow id="f245" from="567060342#0" to="337277984#0" type="car" begin="34200" end="36000" vehsPerHour="41"/>
    <flow id="f246" from="567060342#0" to="542428845#0" type="car" begin="34200" end="36000" vehsPerHour="41"/>
    <flow id="f247" from="567060342#0" to="337277957#0" type="car" begin="34200" end="36000" vehsPerHour="41"/>
    <flow id="f248" from="40668087#1" to="542428845#0" type="car" begin="36000" end="37800" vehsPerHour="41"/>
    <flow id="f249" from="40668087#1" to="337277957#0" type="car" begin="36000" end="37800" vehsPerHour="41"/>
    <flow id="f250" from="40668087#1" to="1053072563" type="car" begin="36000" end="37800" vehsPerHour="41"/>
    <flow id="f251" from="40668087#1" to="337277973#1" type="car" begin="36000" end="37800" vehsPerHour="41"/>
    <flow id="f252" from="40668087#1" to="337277984#0" type="car" begin="36000" end="37800" vehsPerHour="41"/>
    <flow id="f253" from="40668087#1" to="337277970#1" type="car" begin="36000" end="37800" vehsPerHour="41"/>
    <flow id="f254" from="40668087#1" to="337277951#1" type="car" begin="36000" end="37800" vehsPerHour="41"/>
    <flow id="f255" from="49217102" to="337277951#3" type="car" begin="36000" end="37800" vehsPerHour="41"/>
    <flow id="f256" from="49217102" to="1053072563" type="car" begin="36000" end="37800" vehsPerHour="41"/>
    <flow id="f257" from="49217102" to="337277973#1" type="car" begin="36000" end="37800" vehsPerHour="41"/>
    <flow id="f258" from="49217102" to="337277984#0" type="car" begin="36000" end="37800" vehsPerHour="41"/>
    <flow id="f259" from="49217102" to="542428845#0" type="car" begin="36000" end="37800" vehsPerHour="41"/>
    <flow id="f260" from="42143912#5" to="337277957#0" type="car" begin="36000" end="37800" vehsPerHour="41"/>
    <flow id="f261" from="42143912#5" to="542428845#0" type="car" begin="36000" end="37800" vehsPerHour="41"/>
    <flow id="f262" from="42143912#5" to="1053072563" type="car" begin="36000" end="37800" vehsPerHour="41"/>
    <flow id="f263" from="42143912#5" to="337277973#1" type="car" begin="36000" end="37800" vehsPerHour="41"/>
    <flow id="f264" from="567060342#0" to="337277984#0" type="car" begin="36000" end="37800" vehsPerHour="41"/>
    <flow id="f265" from="567060342#0" to="542428845#0" type="car" begin="36000" end="37800" vehsPerHour="41"/>
    <flow id="f266" from="567060342#0" to="337277957#0" type="car" begin="36000" end="37800" vehsPerHour="41"/>
    <flow id="f267" from="40668087#1" to="542428845#0" type="car" begin="37800" end="39600" vehsPerHour="41"/>
    <flow id="f268" from="40668087#1" to="337277957#0" type="car" begin="37800" end="39600" vehsPerHour="41"/>
    <flow id="f269" from="40668087#1" to="1053072563" type="car" begin="37800" end="39600" vehsPerHour="41"/>
    <flow id="f270" from="40668087#1" to="337277973#1" type="car" begin="37800" end="39600" vehsPerHour="41"/>
    <flow id="f271" from="40668087#1" to="337277984#0" type="car" begin="37800" end="39600" vehsPerHour="41"/>