<?xml version="1.0" encoding="UTF-8"?>

<!-- generated on 2025-04-07 07:26:27.461601 by osmWebWizard.py v1_22_0+1127-914c8c69f4a
<configuration>
    <net-file value="/home/geovanny/Documents/Geovanny/Vehiculares/Proyecto1/SUMO_FILES/2025-04-07-07-26-18/osm.net.xml.gz"/>
    <output-trip-file value="/home/geovanny/Documents/Geovanny/Vehiculares/Proyecto1/SUMO_FILES/2025-04-07-07-26-18/osm.passenger.trips.xml"/>
    <route-file value="/home/geovanny/Documents/Geovanny/Vehiculares/Proyecto1/SUMO_FILES/2025-04-07-07-26-18/osm.passenger.rou.xml"/>
    <prefix value="veh"/>
    <trip-attributes value="departLane=&quot;best&quot;"/>
    <fringe-start-attributes value="departSpeed=&quot;max&quot;"/>
    <vehicle-class value="passenger"/>
    <lanes value="True"/>
    <fringe-factor value="50"/>
    <allow-fringe.min-length value="1000.0"/>
    <via-edge-types value="highway.motorway,highway.motorway_link,highway.trunk_link,highway.primary_link,highway.secondary_link,highway.tertiary_link"/>
    <min-distance value="300.0"/>
    <min-distance.fringe value="10.0"/>
    <remove-loops value="True"/>
    <validate value="True"/>
    <end value="43200.0"/>
    <insertion-density value="30.0"/>
</configuration>
-->

<routes xmlns:xsi="http://www.w3.org/2001/XMLSchema-instance" xsi:noNamespaceSchemaLocation="http://sumo.dlr.de/xsd/routes_file.xsd">
    <vType id="veh_passenger" vClass="passenger"/>
    <trip id="veh0" depart="0.00" from="42141326#5" to="337277957#2" departLane="best" type="veh_passenger"/>
    <trip id="veh1" depart="16.79" from="40668087#0" to="42143912#2" departLane="best" type="veh_passenger"/>
    <trip id="veh2" depart="33.57" from="42141326#0" to="337277962" departLane="best" type="veh_passenger" departSpeed="max"/>
    <trip id="veh3" depart="50.36" from="42141326#7" to="49217109#2" departLane="best" type="veh_passenger"/>
    <trip id="veh4" depart="67.14" from="42143920#0" to="337277951#1" departLane="best" type="veh_passenger" departSpeed="max"/>
    <trip id="veh5" depart="83.93" from="42141326#0" to="337277981#1" departLane="best" type="veh_passenger" departSpeed="max"/>
    <trip id="veh6" depart="100.71" from="337277984#2" to="337277962" departLane="best" type="veh_passenger"/>
    <trip id="veh7" depart="117.50" from="42143920#0" to="49217109#2" departLane="best" type="veh_passenger" departSpeed="max"/>
    <trip id="veh8" depart="134.28" from="42143920#0" to="492443336#0" departLane="best" type="veh_passenger" departSpeed="max"/>
    <trip id="veh9" depart="151.07" from="42141326#0" to="542428844#1" departLane="best" type="veh_passenger" departSpeed="max"/>
    <trip id="veh10" depart="167.85" from="42141326#0" to="49217109#2" departLane="best" type="veh_passenger" departSpeed="max"/>
    <trip id="veh11" depart="184.64" from="42143920#0" to="49217109#2" departLane="best" type="veh_passenger" departSpeed="max"/>
    <trip id="veh12" depart="201.42" from="351440624#0" to="42143918#5" departLane="best" type="veh_passenger" departSpeed="max"/>
    <trip id="veh13" depart="218.21" from="351440624#0" to="42143918#5" departLane="best" type="veh_passenger" departSpeed="max"/>
    <trip id="veh14" depart="234.99" from="42141326#0" to="42141326#6" departLane="best" type="veh_passenger" departSpeed="max"/>
    <trip id="veh15" depart="251.78" from="351440624#2" to="492471759#6" departLane="best" type="veh_passenger"/>
    <trip id="veh16" depart="268.56" from="351440624#0" to="492443336#0" departLane="best" type="veh_passenger" departSpeed="max"/>
    <trip id="veh17" depart="285.35" from="351440624#0" to="42143918#5" departLane="best" type="veh_passenger" departSpeed="max"/>
    <trip id="veh18" depart="302.13" from="567060339#3" to="49217116#1" departLane="best" type="veh_passenger"/>
    <trip id="veh19" depart="318.92" from="42141326#0" to="49217116#1" departLane="best" type="veh_passenger" departSpeed="max"/>
    <trip id="veh20" depart="335.70" from="42143920#0" to="492443337#1" departLane="best" type="veh_passenger" departSpeed="max"/>
    <trip id="veh21" depart="352.49" from="351440624#0" to="337277962" departLane="best" type="veh_passenger" departSpeed="max"/>
    <trip id="veh22" depart="369.27" from="351440624#0" to="492471759#6" departLane="best" type="veh_passenger" departSpeed="max"/>
    <trip id="veh23" depart="386.06" from="42201285#1" to="42143918#5" departLane="best" type="veh_passenger"/>
    <trip id="veh24" depart="402.84" from="49217119#0" to="42143918#5" departLane="best" type="veh_passenger"/>
    <trip id="veh25" depart="419.63" from="351440624#1" to="42143918#3" departLane="best" type="veh_passenger"/>
    <trip id="veh26" depart="436.41" from="337277984#1" to="337277962" departLane="best" type="veh_passenger"/>
    <trip id="veh27" depart="453.20" from="351440624#0" to="49217116#1" departLane="best" type="veh_passenger" departSpeed="max"/>
    <trip id="veh28" depart="469.98" from="42143920#0" to="42143918#5" departLane="best" type="veh_passenger" departSpeed="max"/>
    <trip id="veh29" depart="486.77" from="553352498" to="492471759#5" departLane="best" type="veh_passenger"/>
    <trip id="veh30" depart="503.55" from="42143918#1" to="49217109#2" departLane="best" type="veh_passenger"/>
    <trip id="veh31" depart="520.34" from="351440624#2" to="49217116#1" departLane="best" type="veh_passenger"/>
    <trip id="veh32" depart="537.12" from="351440624#0" to="42143918#5" departLane="best" type="veh_passenger" departSpeed="max"/>
    <trip id="veh33" depart="553.91" from="42201285#1" to="42143918#5" departLane="best" type="veh_passenger"/>
    <trip id="veh34" depart="570.69" from="42141326#0" to="351440624#2" departLane="best" type="veh_passenger" departSpeed="max"/>
    <trip id="veh35" depart="587.48" from="49217119#0" to="492471759#6" departLane="best" type="veh_passenger"/>
    <trip id="veh36" depart="604.26" from="42141326#0" to="49217116#1" departLane="best" type="veh_passenger" departSpeed="max"/>
    <trip id="veh37" depart="621.05" from="42141326#1" to="337277977" departLane="best" type="veh_passenger"/>
    <trip id="veh38" depart="637.83" from="42143920#0" to="49217109#2" departLane="best" type="veh_passenger" departSpeed="max"/>
    <trip id="veh39" depart="654.62" from="42143920#0" to="49217109#2" departLane="best" type="veh_passenger" departSpeed="max"/>
    <trip id="veh40" depart="671.40" from="1053072563" to="42143918#5" departLane="best" type="veh_passenger"/>
    <trip id="veh41" depart="688.19" from="337277951#3" to="492471759#6" departLane="best" type="veh_passenger"/>
    <trip id="veh42" depart="704.97" from="42201285#2" to="492443337#1" departLane="best" type="veh_passenger"/>
    <trip id="veh43" depart="721.76" from="42141326#0" to="337277962" departLane="best" type="veh_passenger" departSpeed="max"/>
    <trip id="veh44" depart="738.54" from="42201285#1" to="492471759#6" departLane="best" type="veh_passenger"/>
    <trip id="veh45" depart="755.33" from="337277981#1" to="492443337#1" departLane="best" type="veh_passenger"/>
    <trip id="veh46" depart="772.11" from="42143920#0" to="337277962" departLane="best" type="veh_passenger" departSpeed="max"/>
    <trip id="veh47" depart="788.90" from="42141326#0" to="49217109#2" departLane="best" type="veh_passenger" departSpeed="max"/>
    <trip id="veh48" depart="805.68" from="351440624#1" to="492471759#6" departLane="best" type="veh_passenger"/>
    <trip id="veh49" depart="822.47" from="42141326#0" to="42141326#6" departLane="best" type="veh_passenger" departSpeed="max"/>
    <trip id="veh50" depart="839.25" from="42141326#0" to="492443336#0" departLane="best" type="veh_passenger" departSpeed="max"/>
    <trip id="veh51" depart="856.04" from="351440624#0" to="42143918#5" departLane="best" type="veh_passenger" departSpeed="max"/>
    <trip id="veh52" depart="872.82" from="42141326#0" to="49217109#2" departLane="best" type="veh_passenger" departSpeed="max"/>
    <trip id="veh53" depart="889.61" from="351440624#0" to="42143912#3" departLane="best" type="veh_passenger" departSpeed="max"/>
    <trip id="veh54" depart="906.39" from="42141326#0" to="49217109#2" departLane="best" type="veh_passenger" departSpeed="max"/>
    <trip id="veh55" depart="923.18" from="337277981#1" to="49217116#1" departLane="best" type="veh_passenger"/>
    <trip id="veh56" depart="939.96" from="351440624#0" to="492471759#6" departLane="best" type="veh_passenger" departSpeed="max"/>
    <trip id="veh57" depart="956.75" from="42143920#0" to="337277962" departLane="best" type="veh_passenger" departSpeed="max"/>
    <trip id="veh58" depart="973.53" from="351440624#0" to="49217116#1" departLane="best" type="veh_passenger" departSpeed="max"/>
    <trip id="veh59" depart="990.32" from="351440624#0" to="337277962" departLane="best" type="veh_passenger" departSpeed="max"/>
    <trip id="veh60" depart="1007.10" from="492471412#1" to="49217109#2" departLane="best" type="veh_passenger"/>
    <trip id="veh61" depart="1023.89" from="42141326#0" to="492443337#1" departLane="best" type="veh_passenger" departSpeed="max"/>
    <trip id="veh62" depart="1040.67" from="567060339#1" to="337277962" departLane="best" type="veh_passenger"/>
    <trip id="veh63" depart="1057.46" from="42143920#0" to="42143918#3" departLane="best" type="veh_passenger" departSpeed="max"/>
    <trip id="veh64" depart="1074.24" from="351440624#0" to="42143918#5" departLane="best" type="veh_passenger" departSpeed="max"/>
    <trip id="veh65" depart="1091.03" from="351440624#0" to="492471759#6" departLane="best" type="veh_passenger" departSpeed="max"/>
    <trip id="veh66" depart="1107.81" from="42141326#0" to="337277962" departLane="best" type="veh_passenger" departSpeed="max"/>
    <trip id="veh67" depart="1124.60" from="567060342#1" to="492443337#1" departLane="best" type="veh_passenger"/>
    <trip id="veh68" depart="1141.38" from="542429228" to="492471759#6" departLane="best" type="veh_passenger"/>
    <trip id="veh69" depart="1158.17" from="42143920#0" to="337277984#0" departLane="best" type="veh_passenger" departSpeed="max"/>
    <trip id="veh70" depart="1174.95" from="42141326#0" to="42141326#7" departLane="best" type="veh_passenger" departSpeed="max"/>
    <trip id="veh71" depart="1191.74" from="42141326#0" to="337277962" departLane="best" type="veh_passenger" departSpeed="max"/>
    <trip id="veh72" depart="1208.52" from="42141326#0" to="567060339#0" departLane="best" type="veh_passenger" departSpeed="max"/>
    <trip id="veh73" depart="1225.31" from="351440624#1" to="492443337#1" departLane="best" type="veh_passenger"/>
    <trip id="veh74" depart="1242.09" from="42141326#0" to="49217116#1" departLane="best" type="veh_passenger" departSpeed="max"/>
    <trip id="veh75" depart="1258.88" from="351440624#0" to="42143918#5" departLane="best" type="veh_passenger" departSpeed="max"/>
    <trip id="veh76" depart="1275.66" from="542429228" to="49217109#2" departLane="best" type="veh_passenger"/>
    <trip id="veh77" depart="1292.45" from="42141326#0" to="492443337#1" departLane="best" type="veh_passenger" departSpeed="max"/>
    <trip id="veh78" depart="1309.23" from="42141326#0" to="492471759#2" departLane="best" type="veh_passenger" departSpeed="max"/>
    <trip id="veh79" depart="1326.02" from="351440624#0" to="492471759#6" departLane="best" type="veh_passenger" departSpeed="max"/>
    <trip id="veh80" depart="1342.80" from="42141326#0" to="49217116#1" departLane="best" type="veh_passenger" departSpeed="max"/>
    <trip id="veh81" depart="1359.59" from="351440624#0" to="337277962" departLane="best" type="veh_passenger" departSpeed="max"/>
    <trip id="veh82" depart="1376.37" from="45429543#2" to="42143918#3" departLane="best" type="veh_passenger"/>
    <trip id="veh83" depart="1393.16" from="42141326#0" to="49217116#1" departLane="best" type="veh_passenger" departSpeed="max"/>
    <trip id="veh84" depart="1409.94" from="42141326#0" to="49217109#2" departLane="best" type="veh_passenger" departSpeed="max"/>
    <trip id="veh85" depart="1426.73" from="351440624#0" to="49217116#1" departLane="best" type="veh_passenger" departSpeed="max"/>
    <trip id="veh86" depart="1443.51" from="351440624#0" to="42143918#5" departLane="best" type="veh_passenger" departSpeed="max"/>
    <trip id="veh87" depart="1460.30" from="42141326#0" to="492443337#1" departLane="best" type="veh_passenger" departSpeed="max"/>
    <trip id="veh88" depart="1477.08" from="337277981#2" to="42143918#5" departLane="best" type="veh_passenger"/>
    <trip id="veh89" depart="1493.87" from="337277981#2" to="42141326#6" departLane="best" type="veh_passenger"/>
    <trip id="veh90" depart="1510.65" from="351440624#1" to="492471759#6" departLane="best" type="veh_passenger"/>
    <trip id="veh91" depart="1527.44" from="42201285#2" to="492471759#6" departLane="best" type="veh_passenger"/>
    <trip id="veh92" depart="1544.22" from="42141326#0" to="337277981#1" departLane="best" type="veh_passenger" departSpeed="max"/>
    <trip id="veh93" depart="1561.01" from="42141326#1" to="567060339#1" departLane="best" type="veh_passenger"/>
    <trip id="veh94" depart="1577.79" from="42143920#0" to="42143918#5" departLane="best" type="veh_passenger" departSpeed="max"/>
    <trip id="veh95" depart="1594.58" from="351440624#0" to="337277962" departLane="best" type="veh_passenger" departSpeed="max"/>
    <trip id="veh96" depart="1611.36" from="42143920#0" to="337277962" departLane="best" type="veh_passenger" departSpeed="max"/>
    <trip id="veh97" depart="1628.15" from="337277951#1" to="492443337#1" departLane="best" type="veh_passenger"/>
    <trip id="veh98" depart="1644.93" from="42143920#0" to="49217109#2" departLane="best" type="veh_passenger" departSpeed="max"/>
    <trip id="veh99" depart="1661.72" from="42141326#0" to="337277951#2" departLane="best" type="veh_passenger" departSpeed="max"/>
    <trip id="veh100" depart="1678.50" from="337277981#2" to="492471759#6" departLane="best" type="veh_passenger"/>
    <trip id="veh101" depart="1695.29" from="42143920#0" to="49217109#2" departLane="best" type="veh_passenger" departSpeed="max"/>
    <trip id="veh102" depart="1712.07" from="351440624#0" to="337277962" departLane="best" type="veh_passenger" departSpeed="max"/>
    <trip id="veh103" depart="1728.86" from="42143920#0" to="492471759#5" departLane="best" type="veh_passenger" departSpeed="max"/>
    <trip id="veh104" depart="1745.64" from="49217108#0" to="42141326#6" departLane="best" type="veh_passenger"/>
    <trip id="veh105" depart="1762.43" from="351440624#0" to="337277962" departLane="best" type="veh_passenger" departSpeed="max"/>
    <trip id="veh106" depart="1779.21" from="42143920#0" to="492471759#6" departLane="best" type="veh_passenger" departSpeed="max"/>
    <trip id="veh107" depart="1796.00" from="42141326#0" to="49217116#1" departLane="best" type="veh_passenger" departSpeed="max"/>
    <trip id="veh108" depart="1812.78" from="351440624#0" to="492471759#6" departLane="best" type="veh_passenger" departSpeed="max"/>
    <trip id="veh109" depart="1829.57" from="42143920#0" to="542428845#0" departLane="best" type="veh_passenger" departSpeed="max"/>
    <trip id="veh110" depart="1846.35" from="42143920#0" to="492471759#6" departLane="best" type="veh_passenger" departSpeed="max"/>
    <trip id="veh111" depart="1863.14" from="337277951#4" to="492443337#1" departLane="best" type="veh_passenger"/>
    <trip id="veh112" depart="1879.92" from="42143920#0" to="492471759#6" departLane="best" type="veh_passenger" departSpeed="max"/>
    <trip id="veh113" depart="1896.71" from="42143920#0" to="42143918#5" departLane="best" type="veh_passenger" departSpeed="max"/>
    <trip id="veh114" depart="1913.49" from="42143920#0" to="337277962" departLane="best" type="veh_passenger" departSpeed="max"/>
    <trip id="veh115" depart="1930.28" from="42201285#0" to="492471759#4" departLane="best" type="veh_passenger"/>
    <trip id="veh116" depart="1947.06" from="351440624#0" to="492443337#1" departLane="best" type="veh_passenger" departSpeed="max"/>
    <trip id="veh117" depart="1963.85" from="42143920#0" to="42143912#4" departLane="best" type="veh_passenger" departSpeed="max"/>
    <trip id="veh118" depart="1980.63" from="542428845#0" to="42143918#5" departLane="best" type="veh_passenger"/>
    <trip id="veh119" depart="1997.42" from="42141326#6" to="42143918#5" departLane="best" type="veh_passenger"/>
    <trip id="veh120" depart="2014.20" from="351440624#0" to="42143918#5" departLane="best" type="veh_passenger" departSpeed="max"/>
    <trip id="veh121" depart="2030.99" from="42143920#0" to="42143918#5" departLane="best" type="veh_passenger" departSpeed="max"/>
    <trip id="veh122" depart="2047.77" from="42141326#0" to="49217109#2" departLane="best" type="veh_passenger" departSpeed="max"/>
    <trip id="veh123" depart="2064.56" from="42141326#0" to="49217109#2" departLane="best" type="veh_passenger" departSpeed="max"/>
    <trip id="veh124" depart="2081.34" from="351440624#0" to="49217116#1" departLane="best" type="veh_passenger" departSpeed="max"/>
    <trip id="veh125" depart="2098.13" from="1053072563" to="492471759#6" departLane="best" type="veh_passenger"/>
    <trip id="veh126" depart="2114.91" from="42141326#0" to="49217116#1" departLane="best" type="veh_passenger" departSpeed="max"/>
    <trip id="veh127" depart="2131.70" from="42141326#0" to="337277962" departLane="best" type="veh_passenger" departSpeed="max"/>
    <trip id="veh128" depart="2148.48" from="42141326#0" to="492471412#1" departLane="best" type="veh_passenger" departSpeed="max"/>
    <trip id="veh129" depart="2165.27" from="42143920#0" to="42143918#5" departLane="best" type="veh_passenger" departSpeed="max"/>
    <trip id="veh130" depart="2182.05" from="351440624#0" to="42143918#5" departLane="best" type="veh_passenger" departSpeed="max"/>
    <trip id="veh131" depart="2198.84" from="492471414" to="49217116#1" departLane="best" type="veh_passenger"/>
    <trip id="veh132" depart="2215.62" from="49217108#2" to="49217116#1" departLane="best" type="veh_passenger"/>
    <trip id="veh133" depart="2232.41" from="42141326#0" to="49217109#2" departLane="best" type="veh_passenger" departSpeed="max"/>
    <trip id="veh134" depart="2249.19" from="1053072563" to="42143918#5" departLane="best" type="veh_passenger"/>
    <trip id="veh135" depart="2265.98" from="42141326#0" to="49217109#2" departLane="best" type="veh_passenger" departSpeed="max"/>
    <trip id="veh136" depart="2282.76" from="42141326#0" to="42141326#7" departLane="best" type="veh_passenger" departSpeed="max"/>
    <trip id="veh137" depart="2299.55" from="42143920#0" to="337277984#1" departLane="best" type="veh_passenger" departSpeed="max"/>
    <trip id="veh138" depart="2316.33" from="337277984#0" to="49217109#2" departLane="best" type="veh_passenger"/>
    <trip id="veh139" depart="2333.12" from="42143920#0" to="492443337#1" departLane="best" type="veh_passenger" departSpeed="max"/>
    <trip id="veh140" depart="2349.90" from="42143920#0" to="337277962" departLane="best" type="veh_passenger" departSpeed="max"/>
    <trip id="veh141" depart="2366.69" from="42141326#0" to="49217116#1" departLane="best" type="veh_passenger" departSpeed="max"/>
    <trip id="veh142" depart="2383.47" from="351440624#0" to="49217116#1" departLane="best" type="veh_passenger" departSpeed="max"/>
    <trip id="veh143" depart="2400.26" from="42141326#0" to="42143918#2" departLane="best" type="veh_passenger" departSpeed="max"/>
    <trip id="veh144" depart="2417.04" from="42143912#0" to="337277951#1" departLane="best" type="veh_passenger"/>
    <trip id="veh145" depart="2433.83" from="42143920#0" to="492443337#1" departLane="best" type="veh_passenger" departSpeed="max"/>
    <trip id="veh146" depart="2450.61" from="351440624#0" to="42143918#5" departLane="best" type="veh_passenger" departSpeed="max"/>
    <trip id="veh147" depart="2467.40" from="351440624#0" to="492471759#6" departLane="best" type="veh_passenger" departSpeed="max"/>
    <trip id="veh148" depart="2484.18" from="42141326#0" to="337277962" departLane="best" type="veh_passenger" departSpeed="max"/>
    <trip id="veh149" depart="2500.97" from="351440624#0" to="492471414" departLane="best" type="veh_passenger" departSpeed="max"/>
    <trip id="veh150" depart="2517.75" from="42141326#0" to="492443337#1" departLane="best" type="veh_passenger" departSpeed="max"/>
    <trip id="veh151" depart="2534.54" from="42143912#3" to="567060339#1" departLane="best" type="veh_passenger"/>
    <trip id="veh152" depart="2551.32" from="45429543#2" to="49217116#1" departLane="best" type="veh_passenger"/>
    <trip id="veh153" depart="2568.11" from="42143920#0" to="49217109#2" departLane="best" type="veh_passenger" departSpeed="max"/>
    <trip id="veh154" depart="2584.89" from="42143920#0" to="49217109#2" departLane="best" type="veh_passenger" departSpeed="max"/>
    <trip id="veh155" depart="2601.68" from="49217102" to="492443337#1" departLane="best" type="veh_passenger"/>
    <trip id="veh156" depart="2618.46" from="351440624#0" to="49217116#1" departLane="best" type="veh_passenger" departSpeed="max"/>
    <trip id="veh157" depart="2635.25" from="42143920#0" to="49217109#2" departLane="best" type="veh_passenger" departSpeed="max"/>
    <trip id="veh158" depart="2652.03" from="337277981#2" to="42143918#5" departLane="best" type="veh_passenger"/>
    <trip id="veh159" depart="2668.82" from="351440624#3" to="42143918#5" departLane="best" type="veh_passenger"/>
    <trip id="veh160" depart="2685.60" from="42141326#0" to="337277962" departLane="best" type="veh_passenger" departSpeed="max"/>
    <trip id="veh161" depart="2702.39" from="351440624#0" to="49217116#1" departLane="best" type="veh_passenger" departSpeed="max"/>
    <trip id="veh162" depart="2719.17" from="42141326#0" to="49217109#2" departLane="best" type="veh_passenger" departSpeed="max"/>
    <trip id="veh163" depart="2735.96" from="42141326#0" to="42141326#5" departLane="best" type="veh_passenger" departSpeed="max"/>
    <trip id="veh164" depart="2752.74" from="42141326#0" to="49217116#1" departLane="best" type="veh_passenger" departSpeed="max"/>
    <trip id="veh165" depart="2769.53" from="42143920#0" to="492443337#1" departLane="best" type="veh_passenger" departSpeed="max"/>
    <trip id="veh166" depart="2786.31" from="42141326#0" to="337277951#1" departLane="best" type="veh_passenger" departSpeed="max"/>
    <trip id="veh167" depart="2803.10" from="42141326#0" to="492443337#1" departLane="best" type="veh_passenger" departSpeed="max"/>
    <trip id="veh168" depart="2819.88" from="42143920#0" to="492471759#6" departLane="best" type="veh_passenger" departSpeed="max"/>
    <trip id="veh169" depart="2836.67" from="42141326#0" to="492443337#1" departLane="best" type="veh_passenger" departSpeed="max"/>
    <trip id="veh170" depart="2853.45" from="42141326#0" to="49217109#2" departLane="best" type="veh_passenger" departSpeed="max"/>
    <trip id="veh171" depart="2870.24" from="42141326#0" to="337277962" departLane="best" type="veh_passenger" departSpeed="max"/>
    <trip id="veh172" depart="2887.02" from="42141326#0" to="49217116#1" departLane="best" type="veh_passenger" departSpeed="max"/>
    <trip id="veh173" depart="2903.81" from="42141326#0" to="337277962" departLane="best" type="veh_passenger" departSpeed="max"/>
    <trip id="veh174" depart="2920.59" from="42141326#3" to="337277957#2" departLane="best" type="veh_passenger"/>
    <trip id="veh175" depart="2937.38" from="42141326#0" to="49217109#2" departLane="best" type="veh_passenger" departSpeed="max"/>
    <trip id="veh176" depart="2954.16" from="337277951#4" to="49217116#1" departLane="best" type="veh_passenger"/>
    <trip id="veh177" depart="2970.95" from="351440624#0" to="42143918#5" departLane="best" type="veh_passenger" departSpeed="max"/>
    <trip id="veh178" depart="2987.73" from="337277973#0" to="42143918#5" departLane="best" type="veh_passenger"/>
    <trip id="veh179" depart="3004.52" from="351440624#0" to="42143918#5" departLane="best" type="veh_passenger" departSpeed="max"/>
    <trip id="veh180" depart="3021.30" from="42143920#0" to="42143918#5" departLane="best" type="veh_passenger" departSpeed="max"/>
    <trip id="veh181" depart="3038.09" from="42143920#0" to="492443337#1" departLane="best" type="veh_passenger" departSpeed="max"/>
    <trip id="veh182" depart="3054.87" from="351440624#0" to="337277962" departLane="best" type="veh_passenger" departSpeed="max"/>
    <trip id="veh183" depart="3071.66" from="567060342#1" to="42143918#5" departLane="best" type="veh_passenger"/>
    <trip id="veh184" depart="3088.44" from="42141326#7" to="492443337#1" departLane="best" type="veh_passenger"/>
    <trip id="veh185" depart="3105.23" from="42141326#7" to="492443337#1" departLane="best" type="veh_passenger"/>
    <trip id="veh186" depart="3122.01" from="351440624#0" to="49217116#1" departLane="best" type="veh_passenger" departSpeed="max"/>
    <trip id="veh187" depart="3138.80" from="42141326#0" to="42141326#7" departLane="best" type="veh_passenger" departSpeed="max"/>
    <trip id="veh188" depart="3155.58" from="42143918#3" to="492443337#1" departLane="best" type="veh_passenger"/>
    <trip id="veh189" depart="3172.37" from="42143920#0" to="337277962" departLane="best" type="veh_passenger" departSpeed="max"/>
    <trip id="veh190" depart="3189.15" from="42143920#0" to="492471759#6" departLane="best" type="veh_passenger" departSpeed="max"/>
    <trip id="veh191" depart="3205.94" from="42141326#0" to="49217116#1" departLane="best" type="veh_passenger" departSpeed="max"/>
    <trip id="veh192" depart="3222.72" from="42143920#0" to="337277962" departLane="best" type="veh_passenger" departSpeed="max"/>
    <trip id="veh193" depart="3239.51" from="351440624#0" to="492443337#1" departLane="best" type="veh_passenger" departSpeed="max"/>
    <trip id="veh194" depart="3256.29" from="42143920#0" to="49217109#2" departLane="best" type="veh_passenger" departSpeed="max"/>
    <trip id="veh195" depart="3273.08" from="42143920#0" to="42143918#5" departLane="best" type="veh_passenger" departSpeed="max"/>
    <trip id="veh196" depart="3289.86" from="42143920#0" to="492443337#1" departLane="best" type="veh_passenger" departSpeed="max"/>
    <trip id="veh197" depart="3306.65" from="351440624#0" to="492471759#6" departLane="best" type="veh_passenger" departSpeed="max"/>
    <trip id="veh198" depart="3323.43" from="42141326#5" to="492443337#1" departLane="best" type="veh_passenger"/>
    <trip id="veh199" depart="3340.22" from="42143920#0" to="42143918#5" departLane="best" type="veh_passenger" departSpeed="max"/>
    <trip id="veh200" depart="3357.00" from="42143920#0" to="492471759#6" departLane="best" type="veh_passenger" departSpeed="max"/>
    <trip id="veh201" depart="3373.79" from="351440624#3" to="492443337#1" departLane="best" type="veh_passenger"/>
    <trip id="veh202" depart="3390.57" from="42141326#0" to="492443336#0" departLane="best" type="veh_passenger" departSpeed="max"/>
    <trip id="veh203" depart="3407.36" from="351440624#2" to="492471759#1" departLane="best" type="veh_passenger"/>
    <trip id="veh204" depart="3424.14" from="42143920#0" to="337277962" departLane="best" type="veh_passenger" departSpeed="max"/>
    <trip id="veh205" depart="3440.93" from="42141326#0" to="49217116#1" departLane="best" type="veh_passenger" departSpeed="max"/>
    <trip id="veh206" depart="3457.71" from="42141326#0" to="337277962" departLane="best" type="veh_passenger" departSpeed="max"/>
    <trip id="veh207" depart="3474.50" from="351440624#0" to="492443337#1" departLane="best" type="veh_passenger" departSpeed="max"/>
    <trip id="veh208" depart="3491.28" from="337277951#2" to="492471759#6" departLane="best" type="veh_passenger"/>
    <trip id="veh209" depart="3508.07" from="337277984#1" to="49217116#1" departLane="best" type="veh_passenger"/>
    <trip id="veh210" depart="3524.85" from="42141326#0" to="492443337#1" departLane="best" type="veh_passenger" departSpeed="max"/>
    <trip id="veh211" depart="3541.64" from="42141326#0" to="492443337#1" departLane="best" type="veh_passenger" departSpeed="max"/>
    <trip id="veh212" depart="3558.42" from="42143920#0" to="42143918#5" departLane="best" type="veh_passenger" departSpeed="max"/>
    <trip id="veh213" depart="3575.21" from="351440624#0" to="337277962" departLane="best" type="veh_passenger" departSpeed="max"/>
    <trip id="veh214" depart="3591.99" from="351440624#0" to="337277962" departLane="best" type="veh_passenger" departSpeed="max"/>
    <trip id="veh215" depart="3608.78" from="42141326#0" to="492443337#1" departLane="best" type="veh_passenger" departSpeed="max"/>
    <trip id="veh216" depart="3625.56" from="351440624#0" to="42141326#7" departLane="best" type="veh_passenger" departSpeed="max"/>
    <trip id="veh217" depart="3642.35" from="42141326#0" to="49217119#0" departLane="best" type="veh_passenger" departSpeed="max"/>
    <trip id="veh218" depart="3659.13" from="42141326#0" to="337277962" departLane="best" type="veh_passenger" departSpeed="max"/>
    <trip id="veh219" depart="3675.92" from="351440624#0" to="42143912#4" departLane="best" type="veh_passenger" departSpeed="max"/>
    <trip id="veh220" depart="3692.70" from="351440624#0" to="337277951#3" departLane="best" type="veh_passenger" departSpeed="max"/>
    <trip id="veh221" depart="3709.49" from="42143918#3" to="337277962" departLane="best" type="veh_passenger"/>
    <trip id="veh222" depart="3726.27" from="42143920#0" to="49217102" departLane="best" type="veh_passenger" departSpeed="max"/>
    <trip id="veh223" depart="3743.06" from="42201285#0" to="49217109#2" departLane="best" type="veh_passenger"/>
    <trip id="veh224" depart="3759.84" from="351440624#0" to="337277962" departLane="best" type="veh_passenger" departSpeed="max"/>
    <trip id="veh225" depart="3776.63" from="42143920#0" to="42143918#5" departLane="best" type="veh_passenger" departSpeed="max"/>