<?xml version="1.0" encoding="UTF-8"?>

<!-- generated on 2025-04-07 07:26:26.782118 by osmWebWizard.py v1_22_0+1127-914c8c69f4a
<configuration>
    <net-file value="/home/geovanny/Documents/Geovanny/Vehiculares/Proyecto1/SUMO_FILES/2025-04-07-07-26-18/osm.net.xml.gz"/>
    <output-trip-file value="/home/geovanny/Documents/Geovanny/Vehiculares/Proyecto1/SUMO_FILES/2025-04-07-07-26-18/osm.motorcycle.trips.xml"/>
    <route-file value="/home/geovanny/Documents/Geovanny/Vehiculares/Proyecto1/SUMO_FILES/2025-04-07-07-26-18/osm.motorcycle.rou.xml"/>
    <prefix value="motorcycle"/>
    <trip-attributes value="departLane=&quot;best&quot;"/>
    <fringe-start-attributes value="departSpeed=&quot;max&quot;"/>
    <vehicle-class value="motorcycle"/>
    <fringe-factor value="15"/>
    <vclass value="motorcycle"/>
    <via-edge-types value="highway.motorway,highway.motorway_link,highway.trunk_link,highway.primary_link,highway.secondary_link,highway.tertiary_link"/>
    <max-distance value="1200.0"/>
    <remove-loops value="True"/>
    <validate value="True"/>
    <end value="43200.0"/>
    <insertion-density value="10.0"/>
</configuration>
-->

<routes xmlns:xsi="http://www.w3.org/2001/XMLSchema-instance" xsi:noNamespaceSchemaLocation="http://sumo.dlr.de/xsd/routes_file.xsd">
    <vType id="motorcycle_motorcycle" vClass="motorcycle"/>
    <trip id="motorcycle0" depart="0.00" from="42143920#0" to="337277951#4" departLane="best" type="motorcycle_motorcycle" departSpeed="max"/>
    <trip id="motorcycle1" depart="50.36" from="45429543#0" to="49217116#1" departLane="best" type="motorcycle_motorcycle"/>
    <trip id="motorcycle2" depart="100.71" from="492471759#3" to="337277962" departLane="best" type="motorcycle_motorcycle"/>
    <trip id="motorcycle3" depart="151.07" from="42141326#0" to="337277951#4" departLane="best" type="motorcycle_motorcycle" departSpeed="max"/>
    <trip id="motorcycle4" depart="201.42" from="351440624#0" to="49217109#2" departLane="best" type="motorcycle_motorcycle" departSpeed="max"/>
    <trip id="motorcycle5" depart="251.78" from="337277951#3" to="351440624#2" departLane="best" type="motorcycle_motorcycle"/>
    <trip id="motorcycle6" depart="302.13" from="42143920#0" to="49217109#2" departLane="best" type="motorcycle_motorcycle" departSpeed="max"/>
    <trip id="motorcycle7" depart="352.49" from="351440624#0" to="49217116#1" departLane="best" type="motorcycle_motorcycle" departSpeed="max"/>
    <trip id="motorcycle8" depart="402.84" from="49217119#0" to="337277951#1" departLane="best" type="motorcycle_motorcycle"/>
    <trip id="motorcycle9" depart="453.20" from="49217116#0" to="492443336#0" departLane="best" type="motorcycle_motorcycle"/>
    <trip id="motorcycle10" depart="503.55" from="42141326#0" to="337277977" departLane="best" type="motorcycle_motorcycle" departSpeed="max"/>
    <trip id="motorcycle11" depart="553.91" from="553352498" to="42143918#5" departLane="best" type="motorcycle_motorcycle"/>
    <trip id="motorcycle12" depart="604.26" from="337277981#1" to="337277962" departLane="best" type="motorcycle_motorcycle"/>
    <trip id="motorcycle13" depart="654.62" from="49217119#0" to="492443337#1" departLane="best" type="motorcycle_motorcycle"/>
    <trip id="motorcycle14" depart="704.97" from="42143912#5" to="567060339#0" departLane="best" type="motorcycle_motorcycle"/>
    <trip id="motorcycle15" depart="755.33" from="42141326#0" to="49217109#2" departLane="best" type="motorcycle_motorcycle" departSpeed="max"/>
    <trip id="motorcycle16" depart="805.68" from="49217123" to="49217116#1" departLane="best" type="motorcycle_motorcycle"/>
    <trip id="motorcycle17" depart="856.04" from="492471412#1" to="49217109#2" departLane="best" type="motorcycle_motorcycle"/>
    <trip id="motorcycle18" depart="906.39" from="42143920#0" to="337277962" departLane="best" type="motorcycle_motorcycle" departSpeed="max"/>
    <trip id="motorcycle19" depart="956.75" from="351440624#0" to="42143912#4" departLane="best" type="motorcycle_motorcycle" departSpeed="max"/>
    <trip id="motorcycle20" depart="1007.10" from="337277973#1" to="42141326#3" departLane="best" type="motorcycle_motorcycle"/>
    <trip id="motorcycle21" depart="1057.46" from="337277981#2" to="42143912#2" departLane="best" type="motorcycle_motorcycle"/>
    <trip id="motorcycle22" depart="1107.81" from="42143920#0" to="42143918#5" departLane="best" type="motorcycle_motorcycle" departSpeed="max"/>
    <trip id="motorcycle23" depart="1158.17" from="42141326#0" to="40668087#0" departLane="best" type="motorcycle_motorcycle" departSpeed="max"/>
    <trip id="motorcycle24" depart="1208.52" from="351440624#1" to="492471759#6" departLane="best" type="motorcycle_motorcycle"/>
    <trip id="motorcycle25" depart="1258.88" from="42143920#0" to="49217116#1" departLane="best" type="motorcycle_motorcycle" departSpeed="max"/>
    <trip id="motorcycle26" depart="1309.23" from="351440624#0" to="492443337#1" departLane="best" type="motorcycle_motorcycle" departSpeed="max"/>
    <trip id="motorcycle27" depart="1359.59" from="351440624#0" to="42143918#5" departLane="best" type="motorcycle_motorcycle" departSpeed="max"/>
    <trip id="motorcycle28" depart="1409.94" from="567060342#0" to="49217116#1" departLane="best" type="motorcycle_motorcycle"/>
    <trip id="motorcycle29" depart="1460.30" from="42143918#2" to="49217121" departLane="best" type="motorcycle_motorcycle"/>
    <trip id="motorcycle30" depart="1510.65" from="351440624#0" to="337277957#0" departLane="best" type="motorcycle_motorcycle" departSpeed="max"/>
    <trip id="motorcycle31" depart="1561.01" from="351440624#0" to="542428844#1" departLane="best" type="motorcycle_motorcycle" departSpeed="max"/>
    <trip id="motorcycle32" depart="1611.36" from="492471759#1" to="42143918#2" departLane="best" type="motorcycle_motorcycle"/>
    <trip id="motorcycle33" depart="1661.72" from="42143920#0" to="42143918#5" departLane="best" type="motorcycle_motorcycle" departSpeed="max"/>
    <trip id="motorcycle34" depart="1712.07" from="492471759#5" to="45429543#3" departLane="best" type="motorcycle_motorcycle"/>
    <trip id="motorcycle35" depart="1762.43" from="351440624#1" to="42141326#5" departLane="best" type="motorcycle_motorcycle"/>
    <trip id="motorcycle36" depart="1812.78" from="42143920#0" to="492471759#6" departLane="best" type="motorcycle_motorcycle" departSpeed="max"/>
    <trip id="motorcycle37" depart="1863.14" from="42141326#0" to="40668087#1" departLane="best" type="motorcycle_motorcycle" departSpeed="max"/>
    <trip id="motorcycle38" depart="1913.49" from="567060342#1" to="49217109#2" departLane="best" type="motorcycle_motorcycle"/>
    <trip id="motorcycle39" depart="1963.85" from="337277977" to="337277962" departLane="best" type="motorcycle_motorcycle"/>
    <trip id="motorcycle40" depart="2014.20" from="337277984#0" to="49217116#1" departLane="best" type="motorcycle_motorcycle"/>
    <trip id="motorcycle41" depart="2064.56" from="337277970#1" to="42143918#5" departLane="best" type="motorcycle_motorcycle"/>
    <trip id="motorcycle42" depart="2114.91" from="567060342#1" to="49217109#2" departLane="best" type="motorcycle_motorcycle"/>
    <trip id="motorcycle43" depart="2165.27" from="567060339#1" to="492471759#6" departLane="best" type="motorcycle_motorcycle"/>
    <trip id="motorcycle44" depart="2215.62" from="337277951#1" to="492443337#1" departLane="best" type="motorcycle_motorcycle"/>
    <trip id="motorcycle45" depart="2265.98" from="42143920#0" to="49217109#2" departLane="best" type="motorcycle_motorcycle" departSpeed="max"/>
    <trip id="motorcycle46" depart="2316.33" from="351440624#1" to="49217116#1" departLane="best" type="motorcycle_motorcycle"/>
    <trip id="motorcycle47" depart="2366.69" from="337277984#0" to="42201285#2" departLane="best" type="motorcycle_motorcycle"/>
    <trip id="motorcycle48" depart="2417.04" from="42141326#3" to="542428845#0" departLane="best" type="motorcycle_motorcycle"/>
    <trip id="motorcycle49" depart="2467.40" from="42143912#1" to="337277984#1" departLane="best" type="motorcycle_motorcycle"/>
    <trip id="motorcycle50" depart="2517.75" from="492471759#5" to="492471759#6" departLane="best" type="motorcycle_motorcycle"/>
    <trip id="motorcycle51" depart="2568.11" from="40668087#1" to="49217116#1" departLane="best" type="motorcycle_motorcycle"/>
    <trip id="motorcycle52" depart="2618.46" from="42143920#0" to="337277977" departLane="best" type="motorcycle_motorcycle" departSpeed="max"/>
    <trip id="motorcycle53" depart="2668.82" from="45429543#3" to="49217109#2" departLane="best" type="motorcycle_motorcycle"/>
    <trip id="motorcycle54" depart="2719.17" from="49217108#0" to="49217109#2" departLane="best" type="motorcycle_motorcycle"/>
    <trip id="motorcycle55" depart="2769.53" from="1053072563" to="42143918#4" departLane="best" type="motorcycle_motorcycle"/>
    <trip id="motorcycle56" depart="2819.88" from="337277951#2" to="492471759#6" departLane="best" type="motorcycle_motorcycle"/>
    <trip id="motorcycle57" depart="2870.24" from="492471759#1" to="492471759#3" departLane="best" type="motorcycle_motorcycle"/>
    <trip id="motorcycle58" depart="2920.59" from="42141326#0" to="337277962" departLane="best" type="motorcycle_motorcycle" departSpeed="max"/>
    <trip id="motorcycle59" depart="2970.95" from="492471759#1" to="542428844#2" departLane="best" type="motorcycle_motorcycle"/>
    <trip id="motorcycle60" depart="3021.30" from="337277977" to="49217108#3" departLane="best" type="motorcycle_motorcycle"/>
    <trip id="motorcycle61" depart="3071.66" from="337277973#0" to="492443337#1" departLane="best" type="motorcycle_motorcycle"/>
    <trip id="motorcycle62" depart="3122.01" from="49217102" to="337277962" departLane="best" type="motorcycle_motorcycle"/>
    <trip id="motorcycle63" depart="3172.37" from="42141326#6" to="49217109#2" departLane="best" type="motorcycle_motorcycle"/>
    <trip id="motorcycle64" depart="3222.72" from="351440624#1" to="492471759#6" departLane="best" type="motorcycle_motorcycle"/>
    <trip id="motorcycle65" depart="3273.08" from="42141326#0" to="40668087#0" departLane="best" type="motorcycle_motorcycle" departSpeed="max"/>
    <trip id="motorcycle66" depart="3323.43" from="42143918#0" to="492443337#1" departLane="best" type="motorcycle_motorcycle"/>
    <trip id="motorcycle67" depart="3373.79" from="351440624#0" to="42143918#2" departLane="best" type="motorcycle_motorcycle" departSpeed="max"/>
    <trip id="motorcycle68" depart="3424.14" from="567060342#1" to="49217116#1" departLane="best" type="motorcycle_motorcycle"/>
    <trip id="motorcycle69" depart="3474.50" from="42141326#2" to="49217109#2" departLane="best" type="motorcycle_motorcycle"/>
    <trip id="motorcycle70" depart="3524.85" from="42141326#0" to="49217116#1" departLane="best" type="motorcycle_motorcycle" departSpeed="max"/>
    <trip id="motorcycle71" depart="3575.21" from="337277973#0" to="49217116#1" departLane="best" type="motorcycle_motorcycle"/>
    <trip id="motorcycle72" depart="3625.56" from="351440624#0" to="492471759#6" departLane="best" type="motorcycle_motorcycle" departSpeed="max"/>
    <trip id="motorcycle73" depart="3675.92" from="492471412#1" to="337277962" departLane="best" type="motorcycle_motorcycle"/>
    <trip id="motorcycle74" depart="3726.27" from="351440624#0" to="49217116#1" departLane="best" type="motorcycle_motorcycle" departSpeed="max"/>
    <trip id="motorcycle75" depart="3776.63" from="351440624#0" to="337277962" departLane="best" type="motorcycle_motorcycle" departSpeed="max"/>
    <trip id="motorcycle76" depart="3826.98" from="542428845#0" to="49217109#2" departLane="best" type="motorcycle_motorcycle"/>
    <trip id="motorcycle77" depart="3877.34" from="42141326#6" to="492443337#1" departLane="best" type="motorcycle_motorcycle"/>
    <trip id="motorcycle78" depart="3927.69" from="42141326#0" to="49217102" departLane="best" type="motorcycle_motorcycle" departSpeed="max"/>
    <trip id="motorcycle79" depart="3978.05" from="42201285#2" to="49217116#1" departLane="best" type="motorcycle_motorcycle"/>
    <trip id="motorcycle80" depart="4028.40" from="567060342#0" to="337277962" departLane="best" type="motorcycle_motorcycle"/>
    <trip id="motorcycle81" depart="4078.76" from="42141326#0" to="42143918#5" departLane="best" type="motorcycle_motorcycle" departSpeed="max"/>
    <trip id="motorcycle82" depart="4129.11" from="492471412#1" to="42141326#5" departLane="best" type="motorcycle_motorcycle"/>
    <trip id="motorcycle83" depart="4179.47" from="351440624#0" to="45429543#1" departLane="best" type="motorcycle_motorcycle" departSpeed="max"/>
    <trip id="motorcycle84" depart="4229.82" from="42141326#0" to="42143912#2" departLane="best" type="motorcycle_motorcycle" departSpeed="max"/>
    <trip id="motorcycle85" depart="4280.18" from="351440624#0" to="492471759#6" departLane="best" type="motorcycle_motorcycle" departSpeed="max"/>
    <trip id="motorcycle86" depart="4330.53" from="42141326#2" to="492471759#6" departLane="best" type="motorcycle_motorcycle"/>
    <trip id="motorcycle87" depart="4380.89" from="42143918#1" to="337277962" departLane="best" type="motorcycle_motorcycle"/>
    <trip id="motorcycle88" depart="4431.24" from="567060342#1" to="492471759#4" departLane="best" type="motorcycle_motorcycle"/>
    <trip id="motorcycle89" depart="4481.60" from="567060339#1" to="492471759#6" departLane="best" type="motorcycle_motorcycle"/>
    <trip id="motorcycle90" depart="4531.95" from="42141326#7" to="40668087#1" departLane="best" type="motorcycle_motorcycle"/>
    <trip id="motorcycle91" depart="4582.31" from="42141326#0" to="337277962" departLane="best" type="motorcycle_motorcycle" departSpeed="max"/>
    <trip id="motorcycle92" depart="4632.66" from="42141326#0" to="567060339#3" departLane="best" type="motorcycle_motorcycle" departSpeed="max"/>
    <trip id="motorcycle93" depart="4683.02" from="351440624#1" to="492443337#1" departLane="best" type="motorcycle_motorcycle"/>
    <trip id="motorcycle94" depart="4733.37" from="553352498" to="567060342#1" departLane="best" type="motorcycle_motorcycle"/>
    <trip id="motorcycle95" depart="4783.73" from="42143918#2" to="492443337#1" departLane="best" type="motorcycle_motorcycle"/>
    <trip id="motorcycle96" depart="4834.08" from="351440624#0" to="42143912#5" departLane="best" type="motorcycle_motorcycle" departSpeed="max"/>
    <trip id="motorcycle97" depart="4884.44" from="567060339#1" to="49217109#2" departLane="best" type="motorcycle_motorcycle"/>
    <trip id="motorcycle98" depart="4934.79" from="42143918#0" to="492443337#1" departLane="best" type="motorcycle_motorcycle"/>
    <trip id="motorcycle99" depart="4985.15" from="337277957#2" to="49217116#0" departLane="best" type="motorcycle_motorcycle"/>
    <trip id="motorcycle100" depart="5035.50" from="42143912#1" to="492471759#6" departLane="best" type="motorcycle_motorcycle"/>
    <trip id="motorcycle101" depart="5085.86" from="351440624#0" to="542429228" departLane="best" type="motorcycle_motorcycle" departSpeed="max"/>
    <trip id="motorcycle102" depart="5136.21" from="337277973#1" to="337277984#2" departLane="best" type="motorcycle_motorcycle"/>
    <trip id="motorcycle103" depart="5186.57" from="42143920#0" to="49217116#1" departLane="best" type="motorcycle_motorcycle" departSpeed="max"/>
    <trip id="motorcycle104" depart="5236.92" from="351440624#0" to="337277962" departLane="best" type="motorcycle_motorcycle" departSpeed="max"/>
    <trip id="motorcycle105" depart="5287.28" from="492471759#2" to="42141326#5" departLane="best" type="motorcycle_motorcycle"/>
    <trip id="motorcycle106" depart="5337.63" from="42143920#0" to="49217116#1" departLane="best" type="motorcycle_motorcycle" departSpeed="max"/>
    <trip id="motorcycle107" depart="5387.99" from="42141326#0" to="49217116#0" departLane="best" type="motorcycle_motorcycle" departSpeed="max"/>
    <trip id="motorcycle108" depart="5438.34" from="42143912#4" to="492471759#6" departLane="best" type="motorcycle_motorcycle"/>
    <trip id="motorcycle109" depart="5488.70" from="351440624#0" to="492443337#1" departLane="best" type="motorcycle_motorcycle" departSpeed="max"/>
    <trip id="motorcycle110" depart="5539.05" from="351440624#0" to="42143918#5" departLane="best" type="motorcycle_motorcycle" departSpeed="max"/>
    <trip id="motorcycle111" depart="5589.41" from="42143920#0" to="42143918#0" departLane="best" type="motorcycle_motorcycle" departSpeed="max"/>
    <trip id="motorcycle112" depart="5639.76" from="42141326#0" to="492443337#1" departLane="best" type="motorcycle_motorcycle" departSpeed="max"/>
    <trip id="motorcycle113" depart="5690.12" from="337277973#0" to="45429543#3" departLane="best" type="motorcycle_motorcycle"/>
    <trip id="motorcycle114" depart="5740.47" from="567060342#1" to="567060342#1" departLane="best" type="motorcycle_motorcycle"/>
    <trip id="motorcycle115" depart="5790.83" from="337277973#0" to="40668087#0" departLane="best" type="motorcycle_motorcycle"/>
    <trip id="motorcycle116" depart="5841.18" from="351440624#1" to="492471759#6" departLane="best" type="motorcycle_motorcycle"/>
    <trip id="motorcycle117" depart="5891.54" from="492471759#1" to="492471759#6" departLane="best" type="motorcycle_motorcycle"/>
    <trip id="motorcycle118" depart="5941.89" from="42141326#0" to="337277977" departLane="best" type="motorcycle_motorcycle" departSpeed="max"/>
    <trip id="motorcycle119" depart="5992.25" from="492443336#0" to="492443336#1" departLane="best" type="motorcycle_motorcycle"/>
    <trip id="motorcycle120" depart="6042.60" from="42143920#0" to="567060339#3" departLane="best" type="motorcycle_motorcycle" departSpeed="max"/>
    <trip id="motorcycle121" depart="6092.96" from="42143920#0" to="337277951#1" departLane="best" type="motorcycle_motorcycle" departSpeed="max"/>
    <trip id="motorcycle122" depart="6143.31" from="49217121" to="42143918#0" departLane="best" type="motorcycle_motorcycle"/>
    <trip id="motorcycle123" depart="6193.67" from="42143920#0" to="492471759#6" departLane="best" type="motorcycle_motorcycle" departSpeed="max"/>
    <trip id="motorcycle124" depart="6244.02" from="337277984#2" to="337277962" departLane="best" type="motorcycle_motorcycle"/>
    <trip id="motorcycle125" depart="6294.38" from="337277981#2" to="49217109#2" departLane="best" type="motorcycle_motorcycle"/>
    <trip id="motorcycle126" depart="6344.73" from="351440624#2" to="49217116#1" departLane="best" type="motorcycle_motorcycle"/>
    <trip id="motorcycle127" depart="6395.09" from="42201285#1" to="351440624#3" departLane="best" type="motorcycle_motorcycle"/>
    <trip id="motorcycle128" depart="6445.44" from="42143912#0" to="492471759#6" departLane="best" type="motorcycle_motorcycle"/>
    <trip id="motorcycle129" depart="6495.80" from="492443336#1" to="337277962" departLane="best" type="motorcycle_motorcycle"/>
    <trip id="motorcycle130" depart="6546.15" from="42141326#0" to="42143912#2" departLane="best" type="motorcycle_motorcycle" departSpeed="max"/>
    <trip id="motorcycle131" depart="6596.51" from="1053072563" to="492443337#1" departLane="best" type="motorcycle_motorcycle"/>
    <trip id="motorcycle132" depart="6646.86" from="42143920#0" to="42141326#7" departLane="best" type="motorcycle_motorcycle" departSpeed="max"/>
    <trip id="motorcycle133" depart="6697.22" from="45429543#1" to="49217109#2" departLane="best" type="motorcycle_motorcycle"/>
    <trip id="motorcycle134" depart="6747.57" from="42141326#0" to="337277951#1" departLane="best" type="motorcycle_motorcycle" departSpeed="max"/>
    <trip id="motorcycle135" depart="6797.93" from="337277973#0" to="492471759#6" departLane="best" type="motorcycle_motorcycle"/>
    <trip id="motorcycle136" depart="6848.28" from="492471759#4" to="49217109#2" departLane="best" type="motorcycle_motorcycle"/>
    <trip id="motorcycle137" depart="6898.64" from="492443336#0" to="49217116#0" departLane="best" type="motorcycle_motorcycle"/>
    <trip id="motorcycle138" depart="6948.99" from="351440624#0" to="337277962" departLane="best" type="motorcycle_motorcycle" departSpeed="max"/>
    <trip id="motorcycle139" depart="6999.35" from="42141326#0" to="492471759#6" departLane="best" type="motorcycle_motorcycle" departSpeed="max"/>
    <trip id="motorcycle140" depart="7049.70" from="49217108#3" to="492471759#6" departLane="best" type="motorcycle_motorcycle"/>
    <trip id="motorcycle141" depart="7100.06" from="492471759#3" to="40668087#0" departLane="best" type="motorcycle_motorcycle"/>
    <trip id="motorcycle142" depart="7150.41" from="351440624#0" to="337277962" departLane="best" type="motorcycle_motorcycle" departSpeed="max"/>
    <trip id="motorcycle143" depart="7200.77" from="49217108#0" to="492471759#6" departLane="best" type="motorcycle_motorcycle"/>
    <trip id="motorcycle144" depart="7251.12" from="42141326#0" to="49217116#1" departLane="best" type="motorcycle_motorcycle" departSpeed="max"/>
    <trip id="motorcycle145" depart="7301.48" from="351440624#0" to="492471759#6" departLane="best" type="motorcycle_motorcycle" departSpeed="max"/>
    <trip id="motorcycle146" depart="7351.83" from="492471412#1" to="567060339#1" departLane="best" type="motorcycle_motorcycle"/>
    <trip id="motorcycle147" depart="7402.19" from="49217119#0" to="492471759#6" departLane="best" type="motorcycle_motorcycle"/>
    <trip id="motorcycle148" depart="7452.54" from="337277951#2" to="492443337#1" departLane="best" type="motorcycle_motorcycle"/>
    <trip id="motorcycle149" depart="7502.90" from="42141326#0" to="492471759#6" departLane="best" type="motorcycle_motorcycle" departSpeed="max"/>
    <trip id="motorcycle150" depart="7553.25" from="49217116#0" to="492471759#6" departLane="best" type="motorcycle_motorcycle"/>
    <trip id="motorcycle151" depart="7603.61" from="49217108#2" to="337277962" departLane="best" type="motorcycle_motorcycle"/>
    <trip id="motorcycle152" depart="7653.96" from="492471414" to="492471759#6" departLane="best" type="motorcycle_motorcycle"/>
    <trip id="motorcycle153" depart="7704.32" from="351440624#0" to="492471414" departLane="best" type="motorcycle_motorcycle" departSpeed="max"/>
    <trip id="motorcycle154" depart="7754.67" from="42141326#4" to="42143918#1" departLane="best" type="motorcycle_motorcycle"/>
    <trip id="motorcycle155" depart="7805.03" from="42141326#0" to="492471759#6" departLane="best" type="motorcycle_motorcycle" departSpeed="max"/>
    <trip id="motorcycle156" depart="7855.38" from="567060339#1" to="42143912#2" departLane="best" type="motorcycle_motorcycle"/>
    <trip id="motorcycle157" depart="7905.74" from="42143920#0" to="42143918#5" departLane="best" type="motorcycle_motorcycle" departSpeed="max"/>
    <trip id="motorcycle158" depart="7956.09" from="567060339#3" to="49217109#2" departLane="best" type="motorcycle_motorcycle"/>
    <trip id="motorcycle159" depart="8006.45" from="542428845#0" to="337277962" departLane="best" type="motorcycle_motorcycle"/>
    <trip id="motorcycle160" depart="8056.80" from="567060339#1" to="337277984#1" departLane="best" type="motorcycle_motorcycle"/>
    <trip id="motorcycle161" depart="8107.16" from="337277981#2" to="42201285#2" departLane="best" type="motorcycle_motorcycle"/>
    <trip id="motorcycle162" depart="8157.51" from="42201285#2" to="42143918#2" departLane="best" type="motorcycle_motorcycle"/>
    <trip id="motorcycle163" depart="8207.87" from="42143920#0" to="49217109#2" departLane="best" type="motorcycle_motorcycle" departSpeed="max"/>
    <trip id="motorcycle164" depart="8258.22" from="42141326#0" to="49217109#2" departLane="best" type="motorcycle_motorcycle" departSpeed="max"/>
    <trip id="motorcycle165" depart="8308.58" from="351440624#0" to="492443337#1" departLane="best" type="motorcycle_motorcycle" departSpeed="max"/>
    <trip id="motorcycle166" depart="8358.93" from="1053072563" to="492471759#6" departLane="best" type="motorcycle_motorcycle"/>
    <trip id="motorcycle167" depart="8409.29" from="42143918#0" to="492443337#1" departLane="best" type="motorcycle_motorcycle"/>
    <trip id="motorcycle168" depart="8459.64" from="45429543#1" to="49217116#1" departLane="best" type="motorcycle_motorcycle"/>
    <trip id="motorcycle169" depart="8510.00" from="42141326#0" to="337277962" departLane="best" type="motorcycle_motorcycle" departSpeed="max"/>
    <trip id="motorcycle170" depart="8560.35" from="42143920#0" to="42143918#5" departLane="best" type="motorcycle_motorcycle" departSpeed="max"/>
    <trip id="motorcycle171" depart="8610.71" from="42141326#0" to="492471759#6" departLane="best" type="motorcycle_motorcycle" departSpeed="max"/>
    <trip id="motorcycle172" depart="8661.06" from="42201285#1" to="42143918#0" departLane="best" type="motorcycle_motorcycle"/>
    <trip id="motorcycle173" depart="8711.42" from="42141326#0" to="42143918#5" departLane="best" type="motorcycle_motorcycle" departSpeed="max"/>
    <trip id="motorcycle174" depart="8761.77" from="42141326#0" to="42143912#5" departLane="best" type="motorcycle_motorcycle" departSpeed="max"/>
    <trip id="motorcycle175" depart="8812.13" from="337277984#2" to="42143918#5" departLane="best" type="motorcycle_motorcycle"/>
    <trip id="motorcycle176" depart="8862.48" from="542428845#0" to="49217119#0" departLane="best" type="motorcycle_motorcycle"/>
    <trip id="motorcycle177" depart="8912.84" from="492471759#4" to="49217116#1" departLane="best" type="motorcycle_motorcycle"/>
    <trip id="motorcycle178" depart="8963.19" from="40668087#1" to="49217109#2" departLane="best" type="motorcycle_motorcycle"/>
    <trip id="motorcycle179" depart="9013.55" from="1053072563" to="42143912#4" departLane="best" type="motorcycle_motorcycle"/>
    <trip id="motorcycle180" depart="9063.90" from="42141326#1" to="49217116#0" departLane="best" type="motorcycle_motorcycle"/>
    <trip id="motorcycle181" depart="9114.26" from="42143920#0" to="49217102" departLane="best" type="motorcycle_motorcycle" departSpeed="max"/>
    <trip id="motorcycle182" depart="9164.61" from="42141326#2" to="40668087#1" departLane="best" type="motorcycle_motorcycle"/>
    <trip id="motorcycle183" depart="9214.97" from="42141326#6" to="492471759#6" departLane="best" type="motorcycle_motorcycle"/>
    <trip id="motorcycle184" depart="9265.32" from="49217108#3" to="337277981#2" departLane="best" type="motorcycle_motorcycle"/>
    <trip id="motorcycle185" depart="9315.68" from="337277977" to="49217109#2" departLane="best" type="motorcycle_motorcycle"/>
    <trip id="motorcycle186" depart="9366.03" from="42143920#0" to="42143918#5" departLane="best" type="motorcycle_motorcycle" departSpeed="max"/>
    <trip id="motorcycle187" depart="9416.39" from="49217121" to="492443337#1" departLane="best" type="motorcycle_motorcycle"/>
    <trip id="motorcycle188" depart="9466.74" from="351440624#0" to="337277951#4" departLane="best" type="motorcycle_motorcycle" departSpeed="max"/>
    <trip id="motorcycle189" depart="9517.10" from="351440624#0" to="49217108#0" departLane="best" type="motorcycle_motorcycle" departSpeed="max"/>
    <trip id="motorcycle190" depart="9567.45" from="492471412#0" to="337277962" departLane="best" type="motorcycle_motorcycle"/>
    <trip id="motorcycle191" depart="9617.81" from="42141326#0" to="49217116#1" departLane="best" type="motorcycle_motorcycle" departSpeed="max"/>
    <trip id="motorcycle192" depart="9668.16" from="351440624#0" to="492443336#0" departLane="best" type="motorcycle_motorcycle" departSpeed="max"/>
    <trip id="motorcycle193" depart="9718.52" from="42143912#0" to="42141326#5" departLane="best" type="motorcycle_motorcycle"/>
    <trip id="motorcycle194" depart="9768.87" from="42143920#0" to="1053072563" departLane="best" type="motorcycle_motorcycle" departSpeed="max"/>
    <trip id="motorcycle195" depart="9819.23" from="45429543#2" to="492443337#1" departLane="best" type="motorcycle_motorcycle"/>
    <trip id="motorcycle196" depart="9869.58" from="351440624#0" to="542429228" departLane="best" type="motorcycle_motorcycle" departSpeed="max"/>
    <trip id="motorcycle197" depart="9919.94" from="42143912#3" to="337277962" departLane="best" type="motorcycle_motorcycle"/>
    <trip id="motorcycle198" depart="9970.29" from="351440624#0" to="492471759#6" departLane="best" type="motorcycle_motorcycle" departSpeed="max"/>
    <trip id="motorcycle199" depart="10020.65" from="42141326#4" to="492471412#0" departLane="best" type="motorcycle_motorcycle"/>
    <trip id="motorcycle200" depart="10071.00" from="42143920#0" to="567060342#0" departLane="best" type="motorcycle_motorcycle" departSpeed="max"/>
    <trip id="motorcycle201" depart="10121.36" from="42143920#0" to="542428844#2" departLane="best" type="motorcycle_motorcycle" departSpeed="max"/>
    <trip id="motorcycle202" depart="10171.71" from="492471759#3" to="49217116#1" departLane="best" type="motorcycle_motorcycle"/>
    <trip id="motorcycle203" depart="10222.07" from="42201285#1" to="49217109#2" departLane="best" type="motorcycle_motorcycle"/>
    <trip id="motorcycle204" depart="10272.42" from="49217123" to="49217109#2" departLane="best" type="motorcycle_motorcycle"/>
    <trip id="motorcycle205" depart="10322.78" from="492471759#3" to="492443337#1" departLane="best" type="motorcycle_motorcycle"/>
    <trip id="motorcycle206" depart="10373.13" from="42141326#6" to="42141326#7" departLane="best" type="motorcycle_motorcycle"/>
    <trip id="motorcycle207" depart="10423.49" from="351440624#0" to="49217116#1" departLane="best" type="motorcycle_motorcycle" departSpeed="max"/>
    <trip id="motorcycle208" depart="10473.84" from="49217102" to="49217109#2" departLane="best" type="motorcycle_motorcycle"/>
    <trip id="motorcycle209" depart="10524.20" from="42143920#0" to="42143912#2" departLane="best" type="motorcycle_motorcycle" departSpeed="max"/>