<?xml version="1.0" encoding="UTF-8"?>

<!-- generated on 2025-04-07 07:26:26.253640 by osmWebWizard.py v1_22_0+1127-914c8c69f4a
<configuration>
    <net-file value="/home/geovanny/Documents/Geovanny/Vehiculares/Proyecto1/SUMO_FILES/2025-04-07-07-26-18/osm.net.xml.gz"/>
    <output-trip-file value="/home/geovanny/Documents/Geovanny/Vehiculares/Proyecto1/SUMO_FILES/2025-04-07-07-26-18/osm.bus.trips.xml"/>
    <route-file value="/home/geovanny/Documents/Geovanny/Vehiculares/Proyecto1/SUMO_FILES/2025-04-07-07-26-18/osm.bus.rou.xml"/>
    <prefix value="bus"/>
    <trip-attributes value="departLane=&quot;best&quot;"/>
    <fringe-start-attributes value="departSpeed=&quot;max&quot;"/>
    <vehicle-class value="bus"/>
    <fringe-factor value="25"/>
    <vclass value="bus"/>
    <via-edge-types value="highway.motorway,highway.motorway_link,highway.trunk_link,highway.primary_link,highway.secondary_link,highway.tertiary_link"/>
    <min-distance value="600.0"/>
    <min-distance.fringe value="10.0"/>
    <remove-loops value="True"/>
    <validate value="True"/>
    <end value="43200.0"/>
    <insertion-density value="15.0"/>
</configuration>
-->

<routes xmlns:xsi="http://www.w3.org/2001/XMLSchema-instance" xsi:noNamespaceSchemaLocation="http://sumo.dlr.de/xsd/routes_file.xsd">
    <vType id="bus_bus" vClass="bus"/>
    <trip id="bus0" depart="0.00" from="42141326#0" to="337277957#2" departLane="best" type="bus_bus" departSpeed="max"/>
    <trip id="bus1" depart="33.57" from="42141326#0" to="49217109#2" departLane="best" type="bus_bus" departSpeed="max"/>
    <trip id="bus2" depart="67.14" from="42143920#0" to="337277962" departLane="best" type="bus_bus" departSpeed="max"/>
    <trip id="bus3" depart="100.71" from="351440624#0" to="42143918#5" departLane="best" type="bus_bus" departSpeed="max"/>
    <trip id="bus4" depart="134.28" from="351440624#0" to="492471759#6" departLane="best" type="bus_bus" departSpeed="max"/>
    <trip id="bus5" depart="167.85" from="351440624#0" to="42143918#5" departLane="best" type="bus_bus" departSpeed="max"/>
    <trip id="bus6" depart="201.42" from="49217116#0" to="492443337#1" departLane="best" type="bus_bus"/>
    <trip id="bus7" depart="234.99" from="351440624#0" to="492471759#6" departLane="best" type="bus_bus" departSpeed="max"/>
    <trip id="bus8" depart="268.56" from="40668087#0" to="49217116#1" departLane="best" type="bus_bus"/>
    <trip id="bus9" depart="302.13" from="42201285#0" to="337277962" departLane="best" type="bus_bus"/>
    <trip id="bus10" depart="335.70" from="42141326#0" to="49217109#2" departLane="best" type="bus_bus" departSpeed="max"/>
    <trip id="bus11" depart="369.27" from="351440624#0" to="492471759#6" departLane="best" type="bus_bus" departSpeed="max"/>
    <trip id="bus12" depart="402.84" from="351440624#0" to="42143918#5" departLane="best" type="bus_bus" departSpeed="max"/>
    <trip id="bus13" depart="436.41" from="42141326#0" to="49217109#2" departLane="best" type="bus_bus" departSpeed="max"/>
    <trip id="bus14" depart="469.98" from="42141326#0" to="49217116#1" departLane="best" type="bus_bus" departSpeed="max"/>
    <trip id="bus15" depart="503.55" from="351440624#0" to="492471759#6" departLane="best" type="bus_bus" departSpeed="max"/>
    <trip id="bus16" depart="537.12" from="42141326#0" to="49217109#2" departLane="best" type="bus_bus" departSpeed="max"/>
    <trip id="bus17" depart="570.69" from="351440624#0" to="492471759#6" departLane="best" type="bus_bus" departSpeed="max"/>
    <trip id="bus18" depart="604.26" from="42141326#0" to="567060339#1" departLane="best" type="bus_bus" departSpeed="max"/>
    <trip id="bus19" depart="637.83" from="351440624#0" to="42143918#5" departLane="best" type="bus_bus" departSpeed="max"/>
    <trip id="bus20" depart="671.40" from="42141326#0" to="49217116#1" departLane="best" type="bus_bus" departSpeed="max"/>
    <trip id="bus21" depart="704.97" from="351440624#0" to="42143918#5" departLane="best" type="bus_bus" departSpeed="max"/>
    <trip id="bus22" depart="738.54" from="351440624#0" to="492471759#6" departLane="best" type="bus_bus" departSpeed="max"/>
    <trip id="bus23" depart="772.11" from="49217108#3" to="49217116#1" departLane="best" type="bus_bus"/>
    <trip id="bus24" depart="805.68" from="42141326#0" to="49217116#1" departLane="best" type="bus_bus" departSpeed="max"/>
    <trip id="bus25" depart="839.25" from="351440624#0" to="492471759#6" departLane="best" type="bus_bus" departSpeed="max"/>
    <trip id="bus26" depart="872.82" from="42141326#0" to="49217116#1" departLane="best" type="bus_bus" departSpeed="max"/>
    <trip id="bus27" depart="906.39" from="492471759#1" to="49217116#1" departLane="best" type="bus_bus"/>
    <trip id="bus28" depart="939.96" from="42141326#0" to="49217116#1" departLane="best" type="bus_bus" departSpeed="max"/>
    <trip id="bus29" depart="973.53" from="42141326#0" to="49217116#1" departLane="best" type="bus_bus" departSpeed="max"/>
    <trip id="bus30" depart="1007.10" from="42143920#0" to="492443337#1" departLane="best" type="bus_bus" departSpeed="max"/>
    <trip id="bus31" depart="1040.67" from="351440624#0" to="492471759#6" departLane="best" type="bus_bus" departSpeed="max"/>
    <trip id="bus32" depart="1074.24" from="492471412#1" to="49217116#1" departLane="best" type="bus_bus"/>
    <trip id="bus33" depart="1107.81" from="351440624#0" to="42143918#5" departLane="best" type="bus_bus" departSpeed="max"/>
    <trip id="bus34" depart="1141.38" from="42143920#0" to="337277962" departLane="best" type="bus_bus" departSpeed="max"/>
    <trip id="bus35" depart="1174.95" from="42141326#0" to="49217109#2" departLane="best" type="bus_bus" departSpeed="max"/>
    <trip id="bus36" depart="1208.52" from="42141326#0" to="337277957#2" departLane="best" type="bus_bus" departSpeed="max"/>
    <trip id="bus37" depart="1242.09" from="42141326#0" to="49217116#1" departLane="best" type="bus_bus" departSpeed="max"/>
    <trip id="bus38" depart="1275.66" from="351440624#0" to="42143918#5" departLane="best" type="bus_bus" departSpeed="max"/>
    <trip id="bus39" depart="1309.23" from="42143920#0" to="492443337#1" departLane="best" type="bus_bus" departSpeed="max"/>
    <trip id="bus40" depart="1342.80" from="42143920#0" to="492443337#1" departLane="best" type="bus_bus" departSpeed="max"/>
    <trip id="bus41" depart="1376.37" from="42143920#0" to="492443337#1" departLane="best" type="bus_bus" departSpeed="max"/>
    <trip id="bus42" depart="1409.94" from="42143920#0" to="337277962" departLane="best" type="bus_bus" departSpeed="max"/>
    <trip id="bus43" depart="1443.51" from="42141326#0" to="49217119#0" departLane="best" type="bus_bus" departSpeed="max"/>
    <trip id="bus44" depart="1477.08" from="42143920#0" to="337277962" departLane="best" type="bus_bus" departSpeed="max"/>
    <trip id="bus45" depart="1510.65" from="351440624#0" to="492471759#6" departLane="best" type="bus_bus" departSpeed="max"/>
    <trip id="bus46" depart="1544.22" from="42141326#0" to="49217116#1" departLane="best" type="bus_bus" departSpeed="max"/>
    <trip id="bus47" depart="1577.79" from="42141326#0" to="337277957#2" departLane="best" type="bus_bus" departSpeed="max"/>
    <trip id="bus48" depart="1611.36" from="42143912#1" to="492443337#1" departLane="best" type="bus_bus"/>
    <trip id="bus49" depart="1644.93" from="42143920#0" to="337277962" departLane="best" type="bus_bus" departSpeed="max"/>
    <trip id="bus50" depart="1678.50" from="42141326#0" to="49217109#2" departLane="best" type="bus_bus" departSpeed="max"/>
    <trip id="bus51" depart="1712.07" from="351440624#0" to="42143918#5" departLane="best" type="bus_bus" departSpeed="max"/>
    <trip id="bus52" depart="1745.64" from="42143920#0" to="492443337#1" departLane="best" type="bus_bus" departSpeed="max"/>
    <trip id="bus53" depart="1779.21" from="49217108#3" to="49217116#1" departLane="best" type="bus_bus"/>
    <trip id="bus54" depart="1812.78" from="42141326#0" to="49217116#1" departLane="best" type="bus_bus" departSpeed="max"/>
    <trip id="bus55" depart="1846.35" from="42141326#0" to="49217109#2" departLane="best" type="bus_bus" departSpeed="max"/>
    <trip id="bus56" depart="1879.92" from="351440624#0" to="42143918#5" departLane="best" type="bus_bus" departSpeed="max"/>
    <trip id="bus57" depart="1913.49" from="42201285#1" to="337277962" departLane="best" type="bus_bus"/>
    <trip id="bus58" depart="1947.06" from="42143920#0" to="492443337#1" departLane="best" type="bus_bus" departSpeed="max"/>
    <trip id="bus59" depart="1980.63" from="42143920#0" to="492471414" departLane="best" type="bus_bus" departSpeed="max"/>
    <trip id="bus60" depart="2014.20" from="42143920#0" to="492443337#1" departLane="best" type="bus_bus" departSpeed="max"/>
    <trip id="bus61" depart="2047.77" from="42143918#0" to="492443337#1" departLane="best" type="bus_bus"/>
    <trip id="bus62" depart="2081.34" from="492443336#0" to="49217116#1" departLane="best" type="bus_bus"/>
    <trip id="bus63" depart="2114.91" from="351440624#0" to="492471759#6" departLane="best" type="bus_bus" departSpeed="max"/>
    <trip id="bus64" depart="2148.48" from="42141326#0" to="49217116#1" departLane="best" type="bus_bus" departSpeed="max"/>
    <trip id="bus65" depart="2182.05" from="42143920#0" to="45429543#3" departLane="best" type="bus_bus" departSpeed="max"/>
    <trip id="bus66" depart="2215.62" from="351440624#0" to="492471759#6" departLane="best" type="bus_bus" departSpeed="max"/>
    <trip id="bus67" depart="2249.19" from="351440624#0" to="42143918#5" departLane="best" type="bus_bus" departSpeed="max"/>
    <trip id="bus68" depart="2282.76" from="42143920#0" to="492443337#1" departLane="best" type="bus_bus" departSpeed="max"/>
    <trip id="bus69" depart="2316.33" from="42143920#0" to="492443337#1" departLane="best" type="bus_bus" departSpeed="max"/>
    <trip id="bus70" depart="2349.90" from="42141326#0" to="49217116#1" departLane="best" type="bus_bus" departSpeed="max"/>
    <trip id="bus71" depart="2383.47" from="42143920#0" to="337277962" departLane="best" type="bus_bus" departSpeed="max"/>
    <trip id="bus72" depart="2417.04" from="351440624#3" to="492443337#1" departLane="best" type="bus_bus"/>
    <trip id="bus73" depart="2450.61" from="42141326#0" to="49217116#1" departLane="best" type="bus_bus" departSpeed="max"/>
    <trip id="bus74" depart="2484.18" from="351440624#0" to="492471759#6" departLane="best" type="bus_bus" departSpeed="max"/>
    <trip id="bus75" depart="2517.75" from="42143920#0" to="492443337#1" departLane="best" type="bus_bus" departSpeed="max"/>
    <trip id="bus76" depart="2551.32" from="351440624#0" to="492471759#6" departLane="best" type="bus_bus" departSpeed="max"/>
    <trip id="bus77" depart="2584.89" from="351440624#0" to="42143918#5" departLane="best" type="bus_bus" departSpeed="max"/>
    <trip id="bus78" depart="2618.46" from="42143920#0" to="337277962" departLane="best" type="bus_bus" departSpeed="max"/>
    <trip id="bus79" depart="2652.03" from="42143920#0" to="492443337#1" departLane="best" type="bus_bus" departSpeed="max"/>
    <trip id="bus80" depart="2685.60" from="42141326#0" to="42141326#6" departLane="best" type="bus_bus" departSpeed="max"/>
    <trip id="bus81" depart="2719.17" from="42141326#0" to="49217109#2" departLane="best" type="bus_bus" departSpeed="max"/>
    <trip id="bus82" depart="2752.74" from="42141326#0" to="49217116#1" departLane="best" type="bus_bus" departSpeed="max"/>
    <trip id="bus83" depart="2786.31" from="42141326#0" to="49217116#1" departLane="best" type="bus_bus" departSpeed="max"/>
    <trip id="bus84" depart="2819.88" from="351440624#0" to="492471759#6" departLane="best" type="bus_bus" departSpeed="max"/>
    <trip id="bus85" depart="2853.45" from="42143918#1" to="492443337#1" departLane="best" type="bus_bus"/>
    <trip id="bus86" depart="2887.02" from="351440624#0" to="337277984#2" departLane="best" type="bus_bus" departSpeed="max"/>
    <trip id="bus87" depart="2920.59" from="492443336#0" to="49217116#1" departLane="best" type="bus_bus"/>
    <trip id="bus88" depart="2954.16" from="42143920#0" to="337277962" departLane="best" type="bus_bus" departSpeed="max"/>
    <trip id="bus89" depart="2987.73" from="42143920#0" to="337277962" departLane="best" type="bus_bus" departSpeed="max"/>
    <trip id="bus90" depart="3021.30" from="42141326#0" to="49217116#1" departLane="best" type="bus_bus" departSpeed="max"/>
    <trip id="bus91" depart="3054.87" from="351440624#0" to="42143918#5" departLane="best" type="bus_bus" departSpeed="max"/>
    <trip id="bus92" depart="3088.44" from="351440624#0" to="42143918#5" departLane="best" type="bus_bus" departSpeed="max"/>
    <trip id="bus93" depart="3122.01" from="42143920#0" to="45429543#1" departLane="best" type="bus_bus" departSpeed="max"/>
    <trip id="bus94" depart="3155.58" from="42143920#0" to="492471414" departLane="best" type="bus_bus" departSpeed="max"/>
    <trip id="bus95" depart="3189.15" from="42143920#0" to="492443337#1" departLane="best" type="bus_bus" departSpeed="max"/>
    <trip id="bus96" depart="3222.72" from="42143920#0" to="492443337#1" departLane="best" type="bus_bus" departSpeed="max"/>
    <trip id="bus97" depart="3256.29" from="42141326#0" to="49217109#2" departLane="best" type="bus_bus" departSpeed="max"/>
    <trip id="bus98" depart="3289.86" from="45429543#3" to="49217116#1" departLane="best" type="bus_bus"/>
    <trip id="bus99" depart="3323.43" from="42141326#0" to="49217109#2" departLane="best" type="bus_bus" departSpeed="max"/>
    <trip id="bus100" depart="3357.00" from="42141326#0" to="49217109#2" departLane="best" type="bus_bus" departSpeed="max"/>
    <trip id="bus101" depart="3390.57" from="351440624#0" to="42143918#5" departLane="best" type="bus_bus" departSpeed="max"/>
    <trip id="bus102" depart="3424.14" from="42141326#0" to="49217116#1" departLane="best" type="bus_bus" departSpeed="max"/>
    <trip id="bus103" depart="3457.71" from="42141326#0" to="49217116#1" departLane="best" type="bus_bus" departSpeed="max"/>
    <trip id="bus104" depart="3491.28" from="351440624#0" to="42143918#5" departLane="best" type="bus_bus" departSpeed="max"/>
    <trip id="bus105" depart="3524.85" from="42141326#0" to="49217116#1" departLane="best" type="bus_bus" departSpeed="max"/>
    <trip id="bus106" depart="3558.42" from="42143920#0" to="45429543#2" departLane="best" type="bus_bus" departSpeed="max"/>
    <trip id="bus107" depart="3591.99" from="42201285#0" to="337277962" departLane="best" type="bus_bus"/>
    <trip id="bus108" depart="3625.56" from="42141326#0" to="49217109#2" departLane="best" type="bus_bus" departSpeed="max"/>
    <trip id="bus109" depart="3659.13" from="553352498" to="492471412#1" departLane="best" type="bus_bus"/>
    <trip id="bus110" depart="3692.70" from="42141326#0" to="337277957#0" departLane="best" type="bus_bus" departSpeed="max"/>
    <trip id="bus111" depart="3726.27" from="42141326#0" to="337277957#2" departLane="best" type="bus_bus" departSpeed="max"/>
    <trip id="bus112" depart="3759.84" from="42143920#0" to="492443337#1" departLane="best" type="bus_bus" departSpeed="max"/>
    <trip id="bus113" depart="3793.41" from="351440624#0" to="42143918#5" departLane="best" type="bus_bus" departSpeed="max"/>
    <trip id="bus114" depart="3826.98" from="351440624#0" to="42143918#5" departLane="best" type="bus_bus" departSpeed="max"/>
    <trip id="bus115" depart="3860.55" from="492471759#1" to="49217116#1" departLane="best" type="bus_bus"/>
    <trip id="bus116" depart="3894.12" from="42141326#0" to="49217116#1" departLane="best" type="bus_bus" departSpeed="max"/>
    <trip id="bus117" depart="3927.69" from="42143920#0" to="337277962" departLane="best" type="bus_bus" departSpeed="max"/>
    <trip id="bus118" depart="3961.26" from="42141326#0" to="49217109#2" departLane="best" type="bus_bus" departSpeed="max"/>
    <trip id="bus119" depart="3994.83" from="42201285#0" to="492443337#1" departLane="best" type="bus_bus"/>
    <trip id="bus120" depart="4028.40" from="42143920#0" to="492471412#0" departLane="best" type="bus_bus" departSpeed="max"/>
    <trip id="bus121" depart="4061.97" from="351440624#0" to="42143918#5" departLane="best" type="bus_bus" departSpeed="max"/>
    <trip id="bus122" depart="4095.54" from="42141326#7" to="492443337#1" departLane="best" type="bus_bus"/>
    <trip id="bus123" depart="4129.11" from="42143920#0" to="337277962" departLane="best" type="bus_bus" departSpeed="max"/>
    <trip id="bus124" depart="4162.68" from="42143920#0" to="492471759#1" departLane="best" type="bus_bus" departSpeed="max"/>
    <trip id="bus125" depart="4196.25" from="42141326#0" to="49217116#1" departLane="best" type="bus_bus" departSpeed="max"/>
    <trip id="bus126" depart="4229.82" from="42141326#0" to="49217116#0" departLane="best" type="bus_bus" departSpeed="max"/>
    <trip id="bus127" depart="4263.39" from="49217119#0" to="492443337#1" departLane="best" type="bus_bus"/>
    <trip id="bus128" depart="4296.96" from="42143912#0" to="492443337#1" departLane="best" type="bus_bus"/>
    <trip id="bus129" depart="4330.53" from="42143920#0" to="492443337#1" departLane="best" type="bus_bus" departSpeed="max"/>
    <trip id="bus130" depart="4364.10" from="42143920#0" to="492443337#1" departLane="best" type="bus_bus" departSpeed="max"/>
    <trip id="bus131" depart="4397.67" from="42141326#0" to="49217116#1" departLane="best" type="bus_bus" departSpeed="max"/>
    <trip id="bus132" depart="4431.24" from="42141326#0" to="49217109#2" departLane="best" type="bus_bus" departSpeed="max"/>
    <trip id="bus133" depart="4464.81" from="42141326#0" to="49217116#0" departLane="best" type="bus_bus" departSpeed="max"/>
    <trip id="bus134" depart="4498.38" from="42141326#0" to="49217109#2" departLane="best" type="bus_bus" departSpeed="max"/>
    <trip id="bus135" depart="4531.95" from="42141326#0" to="49217116#1" departLane="best" type="bus_bus" departSpeed="max"/>
    <trip id="bus136" depart="4565.52" from="351440624#0" to="492471759#6" departLane="best" type="bus_bus" departSpeed="max"/>
    <trip id="bus137" depart="4599.09" from="351440624#0" to="42143918#5" departLane="best" type="bus_bus" departSpeed="max"/>
    <trip id="bus138" depart="4632.66" from="42143920#0" to="492443337#1" departLane="best" type="bus_bus" departSpeed="max"/>
    <trip id="bus139" depart="4666.23" from="42143920#0" to="337277962" departLane="best" type="bus_bus" departSpeed="max"/>
    <trip id="bus140" depart="4699.80" from="351440624#0" to="42143918#5" departLane="best" type="bus_bus" departSpeed="max"/>
    <trip id="bus141" depart="4733.37" from="42141326#0" to="49217109#2" departLane="best" type="bus_bus" departSpeed="max"/>
    <trip id="bus142" depart="4766.94" from="42141326#0" to="49217116#1" departLane="best" type="bus_bus" departSpeed="max"/>
    <trip id="bus143" depart="4800.51" from="42143912#1" to="492443337#1" departLane="best" type="bus_bus"/>
    <trip id="bus144" depart="4834.08" from="42141326#0" to="49217116#1" departLane="best" type="bus_bus" departSpeed="max"/>
    <trip id="bus145" depart="4867.65" from="42201285#2" to="492443337#1" departLane="best" type="bus_bus"/>
    <trip id="bus146" depart="4901.22" from="42143918#2" to="492443337#1" departLane="best" type="bus_bus"/>
    <trip id="bus147" depart="4934.79" from="42143920#0" to="337277962" departLane="best" type="bus_bus" departSpeed="max"/>
    <trip id="bus148" depart="4968.36" from="42143920#0" to="337277962" departLane="best" type="bus_bus" departSpeed="max"/>
    <trip id="bus149" depart="5001.93" from="42141326#0" to="49217116#1" departLane="best" type="bus_bus" departSpeed="max"/>
    <trip id="bus150" depart="5035.50" from="351440624#0" to="492471759#6" departLane="best" type="bus_bus" departSpeed="max"/>
    <trip id="bus151" depart="5069.07" from="42201285#1" to="492443337#1" departLane="best" type="bus_bus"/>
    <trip id="bus152" depart="5102.64" from="42143920#0" to="492443336#1" departLane="best" type="bus_bus" departSpeed="max"/>
    <trip id="bus153" depart="5136.21" from="42143920#0" to="337277962" departLane="best" type="bus_bus" departSpeed="max"/>
    <trip id="bus154" depart="5169.78" from="42143920#0" to="337277962" departLane="best" type="bus_bus" departSpeed="max"/>
    <trip id="bus155" depart="5203.35" from="42141326#0" to="49217116#1" departLane="best" type="bus_bus" departSpeed="max"/>
    <trip id="bus156" depart="5236.92" from="42141326#0" to="49217109#2" departLane="best" type="bus_bus" departSpeed="max"/>
    <trip id="bus157" depart="5270.49" from="42141326#0" to="351440624#3" departLane="best" type="bus_bus" departSpeed="max"/>
    <trip id="bus158" depart="5304.06" from="42143920#0" to="337277962" departLane="best" type="bus_bus" departSpeed="max"/>
    <trip id="bus159" depart="5337.63" from="351440624#0" to="42143918#5" departLane="best" type="bus_bus" departSpeed="max"/>
    <trip id="bus160" depart="5371.20" from="42141326#0" to="49217109#2" departLane="best" type="bus_bus" departSpeed="max"/>
    <trip id="bus161" depart="5404.77" from="42141326#0" to="49217109#2" departLane="best" type="bus_bus" departSpeed="max"/>
    <trip id="bus162" depart="5438.34" from="42141326#0" to="49217109#2" departLane="best" type="bus_bus" departSpeed="max"/>
    <trip id="bus163" depart="5471.91" from="351440624#0" to="42143918#5" departLane="best" type="bus_bus" departSpeed="max"/>
    <trip id="bus164" depart="5505.48" from="42143920#0" to="45429543#2" departLane="best" type="bus_bus" departSpeed="max"/>
    <trip id="bus165" depart="5539.05" from="42143912#0" to="492443337#1" departLane="best" type="bus_bus"/>
    <trip id="bus166" depart="5572.62" from="351440624#0" to="42143918#5" departLane="best" type="bus_bus" departSpeed="max"/>
    <trip id="bus167" depart="5606.19" from="351440624#1" to="492471759#6" departLane="best" type="bus_bus"/>
    <trip id="bus168" depart="5639.76" from="42143920#0" to="337277962" departLane="best" type="bus_bus" departSpeed="max"/>
    <trip id="bus169" depart="5673.33" from="42143920#0" to="492443337#1" departLane="best" type="bus_bus" departSpeed="max"/>
    <trip id="bus170" depart="5706.90" from="42141326#0" to="42141326#7" departLane="best" type="bus_bus" departSpeed="max"/>
    <trip id="bus171" depart="5740.47" from="351440624#0" to="492471759#6" departLane="best" type="bus_bus" departSpeed="max"/>
    <trip id="bus172" depart="5774.04" from="351440624#3" to="492471412#1" departLane="best" type="bus_bus"/>
    <trip id="bus173" depart="5807.61" from="351440624#0" to="42143918#5" departLane="best" type="bus_bus" departSpeed="max"/>
    <trip id="bus174" depart="5841.18" from="42143920#0" to="45429543#3" departLane="best" type="bus_bus" departSpeed="max"/>
    <trip id="bus175" depart="5874.75" from="351440624#0" to="492471759#6" departLane="best" type="bus_bus" departSpeed="max"/>
    <trip id="bus176" depart="5908.32" from="42141326#0" to="49217109#2" departLane="best" type="bus_bus" departSpeed="max"/>
    <trip id="bus177" depart="5941.89" from="42141326#0" to="49217116#1" departLane="best" type="bus_bus" departSpeed="max"/>
    <trip id="bus178" depart="5975.46" from="351440624#0" to="492471759#6" departLane="best" type="bus_bus" departSpeed="max"/>
    <trip id="bus179" depart="6009.03" from="351440624#0" to="42143918#5" departLane="best" type="bus_bus" departSpeed="max"/>
    <trip id="bus180" depart="6042.60" from="42143920#0" to="492443337#1" departLane="best" type="bus_bus" departSpeed="max"/>
    <trip id="bus181" depart="6076.17" from="42141326#0" to="49217116#1" departLane="best" type="bus_bus" departSpeed="max"/>
    <trip id="bus182" depart="6109.74" from="42141326#1" to="49217109#2" departLane="best" type="bus_bus"/>
    <trip id="bus183" depart="6143.31" from="42143920#0" to="492443337#1" departLane="best" type="bus_bus" departSpeed="max"/>
    <trip id="bus184" depart="6176.88" from="42141326#0" to="49217116#1" departLane="best" type="bus_bus" departSpeed="max"/>
    <trip id="bus185" depart="6210.45" from="42143920#0" to="337277962" departLane="best" type="bus_bus" departSpeed="max"/>
    <trip id="bus186" depart="6244.02" from="42141326#0" to="49217109#2" departLane="best" type="bus_bus" departSpeed="max"/>
    <trip id="bus187" depart="6277.59" from="492471414" to="49217116#1" departLane="best" type="bus_bus"/>
    <trip id="bus188" depart="6311.16" from="42143918#3" to="492443337#1" departLane="best" type="bus_bus"/>
    <trip id="bus189" depart="6344.73" from="42141326#0" to="49217109#2" departLane="best" type="bus_bus" departSpeed="max"/>
    <trip id="bus190" depart="6378.30" from="42143920#0" to="492443337#1" departLane="best" type="bus_bus" departSpeed="max"/>
    <trip id="bus191" depart="6411.87" from="351440624#0" to="42143918#5" departLane="best" type="bus_bus" departSpeed="max"/>
    <trip id="bus192" depart="6445.44" from="351440624#0" to="42143918#5" departLane="best" type="bus_bus" departSpeed="max"/>
    <trip id="bus193" depart="6479.01" from="42143920#0" to="49217108#2" departLane="best" type="bus_bus" departSpeed="max"/>
    <trip id="bus194" depart="6512.58" from="42141326#0" to="49217109#2" departLane="best" type="bus_bus" departSpeed="max"/>
    <trip id="bus195" depart="6546.15" from="42143920#0" to="492443337#1" departLane="best" type="bus_bus" departSpeed="max"/>
    <trip id="bus196" depart="6579.72" from="42141326#0" to="49217109#2" departLane="best" type="bus_bus" departSpeed="max"/>
    <trip id="bus197" depart="6613.29" from="42143920#0" to="337277962" departLane="best" type="bus_bus" departSpeed="max"/>
    <trip id="bus198" depart="6646.86" from="351440624#0" to="492471759#6" departLane="best" type="bus_bus" departSpeed="max"/>
    <trip id="bus199" depart="6680.43" from="351440624#0" to="42143918#5" departLane="best" type="bus_bus" departSpeed="max"/>
    <trip id="bus200" depart="6714.00" from="42141326#1" to="49217109#2" departLane="best" type="bus_bus"/>
    <trip id="bus201" depart="6747.57" from="42141326#0" to="337277957#2" departLane="best" type="bus_bus" departSpeed="max"/>
    <trip id="bus202" depart="6781.14" from="42143920#0" to="492471412#0" departLane="best" type="bus_bus" departSpeed="max"/>
    <trip id="bus203" depart="6814.71" from="42141326#0" to="49217109#2" departLane="best" type="bus_bus" departSpeed="max"/>
    <trip id="bus204" depart="6848.28" from="351440624#0" to="492471759#6" departLane="best" type="bus_bus" departSpeed="max"/>
    <trip id="bus205" depart="6881.85" from="40668087#0" to="49217116#1" departLane="best" type="bus_bus"/>
    <trip id="bus206" depart="6915.42" from="351440624#0" to="42143918#5" departLane="best" type="bus_bus" departSpeed="max"/>
    <trip id="bus207" depart="6948.99" from="351440624#0" to="42143918#5" departLane="best" type="bus_bus" departSpeed="max"/>
    <trip id="bus208" depart="6982.56" from="42141326#0" to="49217109#2" departLane="best" type="bus_bus" departSpeed="max"/>
    <trip id="bus209" depart="7016.13" from="42143920#0" to="45429543#1" departLane="best" type="bus_bus" departSpeed="max"/>
    <trip id="bus210" depart="7049.70" from="42143920#0" to="492443337#1" departLane="best" type="bus_bus" departSpeed="max"/>
    <trip id="bus211" depart="7083.27" from="42143920#0" to="337277962" departLane="best" type="bus_bus" departSpeed="max"/>
    <trip id="bus212" depart="7116.84" from="553352498" to="492443337#1" departLane="best" type="bus_bus"/>
    <trip id="bus213" depart="7150.41" from="42141326#0" to="49217116#1" departLane="best" type="bus_bus" departSpeed="max"/>
    <trip id="bus214" depart="7183.98" from="42143920#0" to="492443337#1" departLane="best" type="bus_bus" departSpeed="max"/>
    <trip id="bus215" depart="7217.55" from="42141326#0" to="49217116#1" departLane="best" type="bus_bus" departSpeed="max"/>
    <trip id="bus216" depart="7251.12" from="42141326#0" to="49217116#1" departLane="best" type="bus_bus" departSpeed="max"/>
    <trip id="bus217" depart="7284.69" from="351440624#0" to="492471759#6" departLane="best" type="bus_bus" departSpeed="max"/>
    <trip id="bus218" depart="7318.26" from="42143920#0" to="337277962" departLane="best" type="bus_bus" departSpeed="max"/>
    <trip id="bus219" depart="7351.83" from="351440624#0" to="42143918#5" departLane="best" type="bus_bus" departSpeed="max"/>
    <trip id="bus220" depart="7385.40" from="42143920#0" to="337277962" departLane="best" type="bus_bus" departSpeed="max"/>
    <trip id="bus221" depart="7418.97" from="42143920#0" to="337277962" departLane="best" type="bus_bus" departSpeed="max"/>
    <trip id="bus222" depart="7452.54" from="42143920#0" to="49217108#2" departLane="best" type="bus_bus" departSpeed="max"/>
    <trip id="bus223" depart="7486.11" from="42143920#0" to="492443337#1" departLane="best" type="bus_bus" departSpeed="max"/>
    <trip id="bus224" depart="7519.68" from="42141326#0" to="49217109#2" departLane="best" type="bus_bus" departSpeed="max"/>
    <trip id="bus225" depart="7553.25" from="42143920#0" to="337277962" departLane="best" type="bus_bus" departSpeed="max"/>
    <trip id="bus226" depart="7586.82" from="42143920#0" to="492443337#1" departLane="best" type="bus_bus" departSpeed="max"/>
    <trip id="bus227" depart="7620.39" from="42141326#0" to="49217116#1" departLane="best" type="bus_bus" departSpeed="max"/>
    <trip id="bus228" depart="7653.96" from="42143920#0" to="337277962" departLane="best" type="bus_bus" departSpeed="max"/>
    <trip id="bus229" depart="7687.53" from="42143920#0" to="492443337#1" departLane="best" type="bus_bus" departSpeed="max"/>
    <trip id="bus230" depart="7721.10" from="351440624#0" to="492471759#6" departLane="best" type="bus_bus" departSpeed="max"/>
    <trip id="bus231" depart="7754.67" from="42141326#7" to="492443337#1" departLane="best" type="bus_bus"/>