<?xml version="1.0" encoding="UTF-8"?>

<!-- generated on 2025-04-07 07:26:27 by Eclipse SUMO sumo Version v1_22_0+1127-914c8c69f4a
-->

<sumoConfiguration xmlns:xsi="http://www.w3.org/2001/XMLSchema-instance" xsi:noNamespaceSchemaLocation="http://sumo.dlr.de/xsd/sumoConfiguration.xsd">

    <input>
        <net-file value="osm.net_static.xml"/>
        <route-files value="generated_routes_hourly.rou.xml"/>
        <additional-files value="osm.poly.xml.gz,output.add.xml"/>
    </input>
<output>
    <tripinfo-output value="tripinfo_fuzzy.xml"/>
    <statistic-output value="stats_fuzzy.xml"/>
</output>


    <processing>
        <ignore-route-errors value="true"/>
        <tls.actuated.jam-threshold value="30"/>
    </processing>

    <routing>
        <device.rerouting.adaptation-steps value="18"/>
        <device.rerouting.adaptation-interval value="10"/>
    </routing>

    <report>
        <verbose value="true"/>
        <duration-log.statistics value="true"/>
        <no-step-log value="true"/>
    </report>

    <gui_only>
        <gui-settings-file value="osm.view.xml"/>
    </gui_only>
    <time>
        <step-length value="1.0"/>
    </time>

</sumoConfiguration>
